aqu_catunit.ele: written by SWAT+ editor v2.1.0 on 2023-09-11 10:26 for SWAT+ rev.60.5.4
      id  name                   obj_typ  obj_typ_no      bsn_frac      sub_frac      reg_frac  
       1  aqu1                       aqu           1       1.00071       0.00000       0.00000  
