chandeg.con: written by SWAT+ editor v2.1.0 on 2023-09-11 10:25 for SWAT+ rev.60.5.4
      id  name                gis_id          area           lat           lon          elev      lcha               wst       cst      ovfl      rule   out_tot       obj_typ    obj_id       hyd_typ          frac  
       1  cha001                   0    2879.76900      50.14419       5.12689     142.05866         1      s50165n5214e         0         0         0         1           sdc       509           tot       1.00000  
       2  cha002                   0      15.48010      50.14885       5.11817     146.84077         2      s50165n5214e         0         0         0         1           sdc       512           tot       1.00000  
       3  cha003                   0    2783.04580      50.14176       5.12790     142.48257         3      s50165n5214e         0         0         0         1           sdc         1           tot       1.00000  
       4  cha004                   0    2682.38360      50.13137       5.12772     146.78452         4      s50165n5214e         0         0         0         1           sdc       330           tot       1.00000  
       5  cha005                   0    2639.51748      50.12731       5.12162     150.08245         5      s50165n5214e         0         0         0         1           sdc       331           tot       1.00000  
       6  cha006                   0    2562.29800      50.12403       5.11086     155.16103         6      s50165n5214e         0         0         0         1           sdc       319           tot       1.00000  
       7  cha007                   0      15.54175      50.11559       5.10665     176.66407         7       s5004n5128e         0         0         0         1           sdc       301           tot       1.00000  
       8  cha008                   0      93.24060      50.14260       5.12888     142.30791         8      s50165n5214e         0         0         0         1           sdc         1           tot       1.00000  
       9  cha009                   0      47.75960      50.13232       5.14921     151.77080         9      s50165n5214e         0         0         0         1           sdc       660           tot       1.00000  
      10  cha010                   0      49.70550      50.12480       5.11828     155.39462        10      s50165n5214e         0         0         0         1           sdc         5           tot       1.00000  
      11  cha011                   0      19.71990      50.12260       5.11806     159.09544        11      s50165n5214e         0         0         0         1           sdc        10           tot       1.00000  
      12  cha012                   0      17.49050      50.12214       5.12613     167.13004        12      s50165n5214e         0         0         0         1           sdc       123           tot       1.00000  
      13  cha013                   0      17.47190      50.12408       5.15183     179.08137        13      s50165n5214e         0         0         0         1           sdc       125           tot       1.00000  
      14  cha014                   0      47.31100      50.12991       5.15266     156.77071        14      s50165n5214e         0         0         0         1           sdc         9           tot       1.00000  
      15  cha015                   0      85.04470      50.14235       5.13102     142.85342        15      s50165n5214e         0         0         0         1           sdc       151           tot       1.00000  
      16  cha016                   0       0.11220      50.11840       5.09651     172.30669        16       s5004n5128e         0         0         0         1           sdc       472           tot       1.00000  
      17  cha017                   0    2193.70840      50.09659       5.05862     187.81654        17       s5011n4951e         0         0         0         1           sdc       294           tot       1.00000  
      18  cha018                   0      49.95420      50.09123       5.06534     212.41946        18       s5004n5128e         0         0         0         1           sdc       175           tot       1.00000  
      19  cha019                   0      93.42570      50.10626       5.09089     181.77046        19       s5004n5128e         0         0         0         1           sdc       297           tot       1.00000  
      20  cha020                   0      48.25520      50.10411       5.01588     229.69717        20       s5011n4951e         0         0         0         2           sdc       630           tot       0.50000           sdc       631           tot       0.50000  
      21  cha021                   0       0.19840      50.10153       5.08967     185.75701        21       s5004n5128e         0         0         0         1           sdc       153           tot       1.00000  
      22  cha022                   0      16.22876      50.10645       5.01903     238.00300        22       s5011n4951e         0         0         0         1           sdc        20           tot       1.00000  
      23  cha023                   0      33.12710      50.12053       5.08931     172.30813        23       s5004n5128e         0         0         0         1           res        34           tot       1.00000  
      24  cha024                   0       0.03852      50.11807       5.09511     172.30695        24       s5004n5128e         0         0         0         1           sdc        16           tot       1.00000  
      25  cha025                   0    2013.27640      50.09454       5.05048     192.24809        25       s5011n4951e         0         0         0         1           sdc        17           tot       1.00000  
      26  cha026                   0    1980.05140      50.09371       5.03946     198.45067        26       s5011n4951e         0         0         0         1           sdc       147           tot       1.00000  
      27  cha027                   0    1953.70840      50.09276       5.03520     200.48571        27       s5011n4951e         0         0         0         1           sdc        26           tot       1.00000  
      28  cha028                   0    1918.82920      50.09280       5.03088     202.06779        28       s5011n4951e         0         0         0         1           sdc        27           tot       1.00000  
      29  cha029                   0    1918.89360      50.09242       5.03164     202.96407        29       s5011n4951e         0         0         0         1           sdc        27           tot       1.00000  
      30  cha030                   0    1128.25140      50.09212       5.03052     203.73275        30       s5011n4951e         0         0         0         1           sdc        29           tot       1.00000  
      31  cha031                   0     653.03850      50.09227       5.00617     218.89902        31       s5011n4951e         0         0         0         1           sdc       223           tot       1.00000  
      32  cha032                   0    1111.15000      50.09110       5.02786     204.82587        32       s5011n4951e         0         0         0         1           sdc        30           tot       1.00000  
      33  cha033                   0    1084.24360      50.08409       5.02184     212.84724        33       s5011n4951e         0         0         0         1           sdc       167           tot       1.00000  
      34  cha034                   0    1034.47160      50.07326       5.01788     225.72161        34       s5011n4951e         0         0         0         1           sdc       263           tot       1.00000  
      35  cha035                   0       6.39730      50.05669       4.97277     312.60995        35       s5011n4951e         0         0         0         1           sdc       406           tot       1.00000  
      36  cha036                   0     518.38180      50.09058       5.00301     221.01134        36       s5011n4951e         0         0         0         1           sdc        31           tot       1.00000  
      37  cha037                   0     500.54010      50.08984       4.99315     228.29929        37       s5011n4951e         0         0         0         1           sdc        95           tot       1.00000  
      38  cha038                   0     483.36046      50.08870       4.98917     230.64980        38       s5011n4951e         0         0         0         1           sdc        37           tot       1.00000  
      39  cha039                   0     399.99264      50.07777       4.96626     246.65592        39       s5011n4951e         0         0         0         1           sdc       372           tot       1.00000  
      40  cha040                   0       0.00001      50.07598       4.96223     248.92152        40       s5011n4951e         0         0         0         1           sdc       204           tot       1.00000  
      41  cha041                   0     141.09598      50.08413       5.05310     215.12028        41       s5004n5128e         0         0         0         1           sdc       336           tot       1.00000  
      42  cha042                   0      96.83154      50.08140       5.05639     218.69003        42       s5004n5128e         0         0         0         1           sdc        41           tot       1.00000  
      43  cha043                   0     165.83190      50.07612       4.94931     259.85291        43       s5011n4951e         0         0         0         1           sdc       194           tot       1.00000  
      44  cha044                   0      26.24690      50.07811       5.04919     239.32075        44       s5004n5128e         0         0         0         1           sdc        41           tot       1.00000  
      45  cha045                   0      25.84960      50.07786       4.93124     286.38829        45       s5011n4951e         0         0         0         1           sdc       346           tot       1.00000  
      46  cha046                   0     163.46710      50.07733       4.94699     266.54646        46       s5011n4951e         0         0         0         1           sdc        43           tot       1.00000  
      47  cha047                   0      43.61950      50.07946       5.06718     227.94862        47       s5004n5128e         0         0         0         1           sdc        42           tot       1.00000  
      48  cha048                   0      15.02650      50.07960       4.93804     278.81868        48       s5011n4951e         0         0         0         1           sdc       346           tot       1.00000  
      49  cha049                   0       4.91030      50.08080       4.98711     274.55984        49       s5011n4951e         0         0         0         1           sdc       116           tot       1.00000  
      50  cha050                   0      14.69050      50.08386       5.01947     217.24196        50       s5011n4951e         0         0         0         1           sdc        33           tot       1.00000  
      51  cha051                   0      16.08160      50.08661       5.03754     221.67651        51       s5011n4951e         0         0         0         1           sdc       157           tot       1.00000  
      52  cha052                   0      14.84540      50.08671       5.07833     249.71344        52       s5004n5128e         0         0         0         1           sdc       455           tot       1.00000  
      53  cha053                   0      14.07530      50.08742       4.98637     234.61938        53       s5011n4951e         0         0         0         1           sdc        38           tot       1.00000  
      54  cha054                   0      16.55200      50.08969       5.02953     211.18837        54       s5011n4951e         0         0         0         1           sdc        30           tot       1.00000  
      55  cha055                   0       7.25380      50.09021       5.02609     209.09418        55       s5011n4951e         0         0         0         1           sdc        32           tot       1.00000  
      56  cha056                   0      14.63680      50.09048       5.06893     225.01894        56       s5004n5128e         0         0         0         1           sdc        18           tot       1.00000  
      57  cha057                   0      14.00560      50.09342       4.99101     244.12182        57       s5011n4951e         0         0         0         1           sdc       211           tot       1.00000  
      58  cha058                   0      15.11714      50.09406       5.04274     200.76656        58       s5011n4951e         0         0         0         1           sdc        25           tot       1.00000  
      59  cha059                   0     668.70270      50.05830       5.02914     248.34675        59       s5004n5128e         0         0         0         1           sdc       643           tot       1.00000  
      60  cha060                   0     403.55210      50.05026       5.00615     275.58049        60       s5011n4951e         0         0         0         1           sdc       271           tot       1.00000  
      61  cha061                   0     158.51120      50.05241       4.99109     312.43607        61       s5011n4951e         0         0         0         1           sdc       276           tot       1.00000  
      62  cha062                   0     227.85030      50.03631       4.99591     309.27380        62      s49979n4979e         0         0         0         1           sdc       277           tot       1.00000  
      63  cha063                   0      66.30076      50.03972       4.99157     340.63498        63      s49979n4979e         0         0         0         1           sdc       134           tot       1.00000  
      64  cha064                   0     110.31090      50.05760       4.95344     274.86314        64       s5011n4951e         0         0         0         1           sdc       620           tot       1.00000  
      65  cha065                   0     163.37258      50.05815       5.05144     275.34946        65       s5004n5128e         0         0         0         1           sdc       181           tot       1.00000  
      66  cha066                   0      86.65140      50.05631       4.95556     279.07704        66       s5011n4951e         0         0         0         1           sdc        64           tot       1.00000  
      67  cha067                   0       0.51950      50.02610       5.05655     415.35069        67       s5004n5128e         0         0         0         1           sdc       645           tot       1.00000  
      68  cha068                   0      37.46330      50.04616       4.95377     322.92062        68       s5011n4951e         0         0         0         1           sdc       617           tot       1.00000  
      69  cha069                   0      17.28370      50.04002       4.97382     369.18210        69      s49979n4979e         0         0         0         1           res         6           tot       1.00000  
      70  cha070                   0      31.59940      50.04497       4.97241     355.04729        70      s49979n4979e         0         0         0         1           sdc       130           tot       1.00000  
      71  cha071                   0     105.38900      50.07191       5.01675     228.28252        71       s5011n4951e         0         0         0         1           sdc        34           tot       1.00000  
      72  cha072                   0      68.49360      50.06964       4.93946     274.20941        72       s5011n4951e         0         0         0         1           sdc       602           tot       1.00000  
      73  cha073                   0      16.40650      50.05434       4.95960     288.55231        73       s5011n4951e         0         0         0         1           sdc        66           tot       1.00000  
      74  cha074                   0       6.35130      50.05368       4.94365     308.55511        74       s5011n4951e         0         0         0         1           sdc       107           tot       1.00000  
      75  cha075                   0      23.87370      50.06274       4.93102     302.65128        75       s5011n4951e         0         0         0         1           sdc       191           tot       1.00000  
      76  cha076                   0      21.17810      50.06404       4.94980     270.27425        76       s5011n4951e         0         0         0         1           sdc       366           tot       1.00000  
      77  cha077                   0      15.49690      50.06519       4.99071     278.24576        77       s5011n4951e         0         0         0         1           sdc       114           tot       1.00000  
      78  cha078                   0      23.60360      50.06675       4.93264     288.14221        78       s5011n4951e         0         0         0         1           sdc        72           tot       1.00000  
      79  cha079                   0      87.32300      50.07235       4.93993     272.12389        79       s5011n4951e         0         0         0         1           sdc       602           tot       1.00000  
      80  cha080                   0     161.78780      50.04579       5.02757     278.29880        80       s5004n5128e         0         0         0         1           sdc       528           tot       1.00000  
      81  cha081                   0      34.79870      50.03107       4.98967     351.80917        81      s49979n4979e         0         0         0         1           sdc        63           tot       1.00000  
      82  cha082                   0      31.80780      50.02138       4.99475     366.54703        82      s49979n4979e         0         0         0         1           sdc        81           tot       1.00000  
      83  cha083                   0      24.52110      50.02527       4.98789     360.92514        83      s49979n4979e         0         0         0         1           sdc        81           tot       1.00000  
      84  cha084                   0      13.82021      50.02150       5.02277     406.24036        84      s49979n4979e         0         0         0         1           sdc       540           tot       1.00000  
      85  cha085                   0      73.82670      50.04229       5.02526     292.00078        85       s5004n5128e         0         0         0         1           sdc        80           tot       1.00000  
      86  cha086                   0      47.44580      50.03489       5.03211     342.44756        86       s5004n5128e         0         0         0         1           sdc        85           tot       1.00000  
      87  cha087                   0      17.86830      50.03170       4.98561     357.69749        87      s49979n4979e         0         0         0         1           sdc        63           tot       1.00000  
      88  cha088                   0      21.54610      50.03728       5.02478     324.07321        88      s49979n4979e         0         0         0         1           sdc        85           tot       1.00000  
      89  cha089                   0      95.50010      50.02269       5.00186     345.29037        89      s49979n4979e         0         0         0         1           sdc        62           tot       1.00000  
      90  cha090                   0      42.46150      50.00965       5.00911     391.47418        90      s49979n4979e         0         0         0         1           sdc       637           tot       1.00000  
      91  cha091                   0      23.99134      50.00782       5.01123     399.08618        91      s49979n4979e         0         0         0         1           sdc        90           tot       1.00000  
      92  cha092                   0       0.00001      50.00887       5.01046     394.82057        92      s49979n4979e         0         0         0         1           sdc        90           tot       1.00000  
      93  cha093                   0      12.40871      50.01446       4.99821     370.21729        93      s49979n4979e         0         0         0         1           sdc       635           tot       1.00000  
      94  cha094                   0      14.08300      50.02003       5.00663     360.93997        94      s49979n4979e         0         0         0         1           sdc       283           tot       1.00000  
      95  cha095                   0     512.69280      50.08951       4.99744     227.43640        95       s5011n4951e         0         0         0         1           sdc       396           tot       1.00000  
      96  cha096                   0      13.46428      50.09874       5.00456     240.71107        96       s5011n4951e         0         0         0         1           sdc       416           tot       1.00000  
      97  cha097                   0     885.74490      50.06507       5.03092     239.29968        97       s5004n5128e         0         0         0         1           sdc       583           tot       1.00000  
      98  cha098                   0    2347.02280      50.11555       5.09157     172.30762        98       s5004n5128e         0         0         0         1           res        28           tot       1.00000  
      99  cha099                   0       0.00001      50.11600       5.09260     172.30743        99       s5004n5128e         0         0         0         1           sdc       105           tot       1.00000  
     100  cha100                   0      55.61290      50.05254       4.98497     325.46953       100       s5011n4951e         0         0         0         1           res        11           tot       1.00000  
     101  cha101                   0       0.39270      50.05181       4.98747     325.54436       101       s5011n4951e         0         0         0         1           sdc       111           tot       1.00000  
     102  cha102                   0       0.00001      50.01659       4.99781     364.33748       102      s49979n4979e         0         0         0         1           sdc       128           tot       1.00000  
     103  cha103                   0      35.03580      50.01475       4.99803     369.19922       103      s49979n4979e         0         0         0         1           sdc       337           tot       1.00000  
     104  cha104                   0    2280.04680      50.10008       5.07057     181.06033       104       s5004n5128e         0         0         0         1           sdc       155           tot       1.00000  
     105  cha105                   0    2350.08840      50.11665       5.09371     172.30724       105       s5004n5128e         0         0         0         1           sdc       306           tot       1.00000  
     106  cha106                   0      10.08060      50.05458       4.94502     300.06433       106       s5011n4951e         0         0         0         1           sdc       107           tot       1.00000  
     107  cha107                   0     110.17160      50.05547       4.95056     285.54103       107       s5011n4951e         0         0         0         1           sdc        64           tot       1.00000  
     108  cha108                   0       0.01230      50.05341       4.98231     325.09679       108       s5011n4951e         0         0         0         1           sdc       109           tot       1.00000  
     109  cha109                   0      55.48370      50.05299       4.98353     324.08351       109       s5011n4951e         0         0         0         2           sdc       100           tot       0.50000           sdc       555           tot       0.50000  
     110  cha110                   0       0.37690      50.05175       4.98770     325.43942       110       s5011n4951e         0         0         0         1           sdc       111           tot       1.00000  
     111  cha111                   0      61.64160      50.05191       4.98780     324.08301       111       s5011n4951e         0         0         0         1           sdc       554           tot       1.00000  
     112  cha112                   0       4.96700      50.05873       4.97087     309.84241       112       s5011n4951e         0         0         0         1           sdc       163           tot       1.00000  
     113  cha113                   0      10.67320      50.06519       4.99130     278.76343       113       s5011n4951e         0         0         0         1           sdc       114           tot       1.00000  
     114  cha114                   0      34.33000      50.06684       4.99305     270.66695       114       s5011n4951e         0         0         0         1           sdc       523           tot       1.00000  
     115  cha115                   0       1.25520      50.06850       4.96761     299.78067       115       s5011n4951e         0         0         0         1           sdc       141           tot       1.00000  
     116  cha116                   0     509.01130      50.08530       4.98991     251.03853       116       s5011n4951e         0         0         0         1           sdc        95           tot       1.00000  
     117  cha117                   0      86.69825      50.07618       4.99770     244.41871       117       s5011n4951e         0         0         0         1           sdc       402           tot       1.00000  
     118  cha118                   0      86.44170      50.07547       4.99612     243.99804       118       s5011n4951e         0         0         0         1           sdc       402           tot       1.00000  
     119  cha119                   0       0.00001      50.12798       5.15547     160.47540       119      s50165n5214e         0         0         0         1           sdc       125           tot       1.00000  
     120  cha120                   0       0.06890      50.13836       5.14641     145.57742       120      s50165n5214e         0         0         0         1           sdc       324           tot       1.00000  
     121  cha121                   0      10.21220      50.13895       5.13887     144.10541       121      s50165n5214e         0         0         0         1           sdc       149           tot       1.00000  
     122  cha122                   0      29.40610      50.12288       5.12187     164.76334       122      s50165n5214e         0         0         0         1           sdc       123           tot       1.00000  
     123  cha123                   0      29.43140      50.12287       5.11849     159.09541       123      s50165n5214e         0         0         0         1           sdc        10           tot       1.00000  
     124  cha124                   0     108.43860      50.10798       5.09314     178.88301       124       s5004n5128e         0         0         0         1           sdc       462           tot       1.00000  
     125  cha125                   0      43.14260      50.12977       5.15243     156.51626       125      s50165n5214e         0         0         0         1           sdc       322           tot       1.00000  
     126  cha126                   0      36.55773      50.01643       4.99807     364.85420       126      s49979n4979e         0         0         0         1           sdc       128           tot       1.00000  
     127  cha127                   0      35.90750      50.01592       4.99804     365.27141       127      s49979n4979e         0         0         0         1           sdc       126           tot       1.00000  
     128  cha128                   0      47.76050      50.01986       4.99847     350.83350       128      s49979n4979e         0         0         0         1           sdc        62           tot       1.00000  
     129  cha129                   0       6.56500      50.04332       4.96988     364.02760       129      s49979n4979e         0         0         0         1           sdc       132           tot       1.00000  
     130  cha130                   0      48.30780      50.05069       4.97653     336.84953       130       s5011n4951e         0         0         0         1           sdc       109           tot       1.00000  
     131  cha131                   0       1.37080      50.04701       4.96972     358.03284       131       s5011n4951e         0         0         0         1           sdc       132           tot       1.00000  
     132  cha132                   0      32.06250      50.04663       4.97164     352.96269       132       s5011n4951e         0         0         0         1           sdc       130           tot       1.00000  
     133  cha133                   0      87.69900      50.04528       4.99256     332.21835       133      s49979n4979e         0         0         0         1           sdc       134           tot       1.00000  
     134  cha134                   0      89.41610      50.04978       4.99147     327.57875       134       s5011n4951e         0         0         0         1           sdc        61           tot       1.00000  
     135  cha135                   0      36.68010      50.02867       5.01623     366.64470       135      s49979n4979e         0         0         0         1           sdc       534           tot       1.00000  
     136  cha136                   0      41.84210      50.03089       5.01804     375.47430       136      s49979n4979e         0         0         0         1           sdc       534           tot       1.00000  
     137  cha137                   0      20.71116      50.04705       5.03251     292.38506       137       s5004n5128e         0         0         0         1           sdc       138           tot       1.00000  