hru-data.hru: written by SWAT+ editor v2.1.0 on 2023-09-07 14:03 for SWAT+ rev.60.5.4, edited manually on 2023-09-09 09:48:29.673467 and edited with SWATfarmR 2.0.5 on 2024-02-16 10:50:44
      id  name                          topo             hydro              soil            lu_mgt   soil_plant_init         surf_stor              snow             field
       1  hru0001                topohru0001           hyd0001          Gbbr2_30          frsd_lum     soilplant0001              null           snow001              null
       2  hru0002                topohru0002           hyd0002          fuAdb2_0          urml_lum     soilplant0002              null           snow001              null
       3  hru0003                topohru0003           hyd0003           (G)bp_0          frsd_lum     soilplant0003              null           snow001              null
       4  hru0004                topohru0004           hyd0004            EIp_20          utrn_lum     soilplant0004              null           snow001              null
       5  hru0005                topohru0005           hyd0005          Gbbk4_30          frsd_lum     soilplant0005              null           snow001              null
       6  hru0006                topohru0006           hyd0006          Gbbk4_30        past_1_lum     soilplant0006              null           snow001              null
       7  hru0007                topohru0007           hyd0007        f2uGdb2_40          frsd_lum     soilplant0007              null           snow001              null
       8  hru0008                topohru0008           hyd0008         f2uGdb2_0        past_2_lum     soilplant0008              null           snow001              null
       9  hru0009                topohru0009           hyd0009          Gbbfi2_0          frsd_lum     soilplant0009              null           snow001              null
      10  hru0010                topohru0010           hyd0010          Gbbr2_30          frsd_lum     soilplant0010              null           snow001              null
      11  hru0011                topohru0011           hyd0011          Gbbf2_20          utrn_lum     soilplant0011              null           snow001              null
      12  hru0012                topohru0012           hyd0012          Gbbf2_20          utrn_lum     soilplant0012              null           snow001              null
      13  hru0013                topohru0013           hyd0013          Gbbf2_40          utrn_lum     soilplant0013              null           snow001              null
      14  hru0014                topohru0014           hyd0014          Gbbf2_20          utrn_lum     soilplant0014              null           snow001              null
      15  hru0015                topohru0015           hyd0015          Gbbf2_20          frsd_lum     soilplant0015              null           snow001              null
      16  hru0016                topohru0016           hyd0016           Gbbf2_0          frsd_lum     soilplant0016              null           snow001              null
      17  hru0017                topohru0017           hyd0017           Gbbf2_0          frsd_lum     soilplant0017              null           snow001              null
      18  hru0018                topohru0018           hyd0018          Gbbf2_40          frsd_lum     soilplant0018              null           snow001              null
      19  hru0019                topohru0019           hyd0019          uGdbt2_0          frsd_lum     soilplant0019              null           snow001              null
      20  hru0020                topohru0020           hyd0020          Gbbf2_20        agrl_5_lum     soilplant0020              null           snow001              null
      21  hru0021                topohru0021           hyd0021          Gbbf2_20        agrl_6_lum     soilplant0021              null           snow001              null
      22  hru0022                topohru0022           hyd0022          Gbbf2_20        agrl_7_lum     soilplant0022              null           snow001              null
      23  hru0023                topohru0023           hyd0023          Gbbf2_20        agrl_8_lum     soilplant0023              null           snow001              null
      24  hru0024                topohru0024           hyd0024          Gbbf2_20        agrl_9_lum     soilplant0024              null           snow001              null
      25  hru0025                topohru0025           hyd0025          Gbbf2_20       agrl_10_lum     soilplant0025              null           snow001              null
      26  hru0026                topohru0026           hyd0026          Gbbf2_20       agrl_11_lum     soilplant0026              null           snow001              null
      27  hru0027                topohru0027           hyd0027          Gbbf2_20       agrl_12_lum     soilplant0027              null           snow001              null
      28  hru0028                topohru0028           hyd0028          Gbbf2_20       agrl_13_lum     soilplant0028              null           snow001              null
      29  hru0029                topohru0029           hyd0029          Gbbf2_20       agrl_14_lum     soilplant0029              null           snow001              null
      30  hru0030                topohru0030           hyd0030          Gbbf2_20       agrl_15_lum     soilplant0030              null           snow001              null
      31  hru0031                topohru0031           hyd0031          Gbbf2_20       agrl_16_lum     soilplant0031              null           snow001              null
      32  hru0032                topohru0032           hyd0032           Gdbr2_0       agrl_17_lum     soilplant0032              null           snow001              null
      33  hru0033                topohru0033           hyd0033           Gdbr2_0       agrl_18_lum     soilplant0033              null           snow001              null
      34  hru0034                topohru0034           hyd0034          Gdbr2_20       agrl_19_lum     soilplant0034              null           snow001              null
      35  hru0035                topohru0035           hyd0035          Gdbr2_20       agrl_20_lum     soilplant0035              null           snow001              null
      36  hru0036                topohru0036           hyd0036        f2uGdb2_40       agrl_21_lum     soilplant0036              null           snow001              null
      37  hru0037                topohru0037           hyd0037           Gdbr2_0       agrl_22_lum     soilplant0037              null           snow001              null
      38  hru0038                topohru0038           hyd0038          Gdbr2_20       agrl_23_lum     soilplant0038              null           snow001              null
      39  hru0039                topohru0039           hyd0039           Gdbr2_0       agrl_24_lum     soilplant0039              null           snow001              null
      40  hru0040                topohru0040           hyd0040          Gbbf2_20       agrl_25_lum     soilplant0040              null           snow001              null
      41  hru0041                topohru0041           hyd0041          Gbbf2_20       agrl_26_lum     soilplant0041              null           snow001              null
      42  hru0042                topohru0042           hyd0042           Gbbf2_0       agrl_27_lum     soilplant0042              null           snow001              null
      43  hru0043                topohru0043           hyd0043           Gbbf2_0       agrl_28_lum     soilplant0043              null           snow001              null
      44  hru0044                topohru0044           hyd0044           Gbbf2_0       agrl_29_lum     soilplant0044              null           snow001              null
      45  hru0045                topohru0045           hyd0045        f2uGdb2_20       agrl_30_lum     soilplant0045              null           snow001              null
      46  hru0046                topohru0046           hyd0046        f2uGdb2_20       agrl_31_lum     soilplant0046              null           snow001              null
      47  hru0047                topohru0047           hyd0047        f2uGdb2_20       agrl_32_lum     soilplant0047              null           snow001              null
      48  hru0048                topohru0048           hyd0048        f2uGdb2_40       agrl_33_lum     soilplant0048              null           snow001              null
      49  hru0049                topohru0049           hyd0049        f2uGdb2_20       agrl_34_lum     soilplant0049              null           snow001              null
      50  hru0050                topohru0050           hyd0050        f2uGdb2_20       agrl_36_lum     soilplant0050              null           snow001              null
      51  hru0051                topohru0051           hyd0051        f2uGdb2_20       agrl_37_lum     soilplant0051              null           snow001              null
      52  hru0052                topohru0052           hyd0052        f2uGdb2_20       agrl_38_lum     soilplant0052              null           snow001              null
      53  hru0053                topohru0053           hyd0053        f2uGdb2_20       agrl_39_lum     soilplant0053              null           snow001              null
      54  hru0054                topohru0054           hyd0054          Gbbf2_40       agrl_41_lum     soilplant0054              null           snow001              null
      55  hru0055                topohru0055           hyd0055          Gbbf2_20       agrl_42_lum     soilplant0055              null           snow001              null
      56  hru0056                topohru0056           hyd0056              NC_0       agrl_43_lum     soilplant0056              null           snow001              null
      57  hru0057                topohru0057           hyd0057           (G)bp_0       agrl_44_lum     soilplant0057              null           snow001              null
      58  hru0058                topohru0058           hyd0058          Gbbk4_20       agrl_45_lum     soilplant0058              null           snow001              null
      59  hru0059                topohru0059           hyd0059             NC_30       agrl_46_lum     soilplant0059              null           snow001              null
      60  hru0060                topohru0060           hyd0060          Gbbk4_20       agrl_47_lum     soilplant0060              null           snow001              null
      61  hru0061                topohru0061           hyd0061           (G)bp_0       agrl_48_lum     soilplant0061              null           snow001              null
      62  hru0062                topohru0062           hyd0062          Gbbk4_40       agrl_49_lum     soilplant0062              null           snow001              null
      63  hru0063                topohru0063           hyd0063           Gbbk4_0       agrl_50_lum     soilplant0063              null           snow001              null
      64  hru0064                topohru0064           hyd0064          (G)bp_20       agrl_51_lum     soilplant0064              null           snow001              null
      65  hru0065                topohru0065           hyd0065          Gbbf2_40       agrl_52_lum     soilplant0065              null           snow001              null
      66  hru0066                topohru0066           hyd0066          Gbbf2_40       agrl_53_lum     soilplant0066              null           snow001              null
      67  hru0067                topohru0067           hyd0067          Gbbk4_20       agrl_54_lum     soilplant0067              null           snow001              null
      68  hru0068                topohru0068           hyd0068          Gbbk4_20       agrl_55_lum     soilplant0068              null           snow001              null
      69  hru0069                topohru0069           hyd0069         fuAdb2_40       agrl_56_lum     soilplant0069              null           snow001              null
      70  hru0070                topohru0070           hyd0070          Gbbk4_20       agrl_57_lum     soilplant0070              null           snow001              null
      71  hru0071                topohru0071           hyd0071          Gbbk4_20       agrl_58_lum     soilplant0071              null           snow001              null
      72  hru0072                topohru0072           hyd0072          Gbbk4_20       agrl_59_lum     soilplant0072              null           snow001              null
      73  hru0073                topohru0073           hyd0073          Gbbk4_20       agrl_60_lum     soilplant0073              null           snow001              null
      74  hru0074                topohru0074           hyd0074          Gbbk4_20       agrl_61_lum     soilplant0074              null           snow001              null
      75  hru0075                topohru0075           hyd0075          Gbbk4_20       agrl_62_lum     soilplant0075              null           snow001              null
      76  hru0076                topohru0076           hyd0076          Gbbk4_20       agrl_63_lum     soilplant0076              null           snow001              null
      77  hru0077                topohru0077           hyd0077          Gbbk4_20       agrl_64_lum     soilplant0077              null           snow001              null
      78  hru0078                topohru0078           hyd0078          Gbbk4_20       agrl_65_lum     soilplant0078              null           snow001              null
      79  hru0079                topohru0079           hyd0079           Gbbk4_0       agrl_66_lum     soilplant0079              null           snow001              null
      80  hru0080                topohru0080           hyd0080          Gbbf2_40       agrl_67_lum     soilplant0080              null           snow001              null
      81  hru0081                topohru0081           hyd0081          Gbbk4_20       agrl_68_lum     soilplant0081              null           snow001              null
      82  hru0082                topohru0082           hyd0082          Gbbf2_40       agrl_69_lum     soilplant0082              null           snow001              null
      83  hru0083                topohru0083           hyd0083          Gbbf2_40       agrl_70_lum     soilplant0083              null           snow001              null
      84  hru0084                topohru0084           hyd0084          Gbbk4_20       agrl_71_lum     soilplant0084              null           snow001              null
      85  hru0085                topohru0085           hyd0085          Gbbk4_20       agrl_72_lum     soilplant0085              null           snow001              null
      86  hru0086                topohru0086           hyd0086          Gbbf2_40       agrl_73_lum     soilplant0086              null           snow001              null
      87  hru0087                topohru0087           hyd0087          Gbbk4_20       agrl_74_lum     soilplant0087              null           snow001              null
      88  hru0088                topohru0088           hyd0088             NC_40       agrl_75_lum     soilplant0088              null           snow001              null
      89  hru0089                topohru0089           hyd0089             NC_30       agrl_76_lum     soilplant0089              null           snow001              null
      90  hru0090                topohru0090           hyd0090             NC_30       agrl_77_lum     soilplant0090              null           snow001              null
      91  hru0091                topohru0091           hyd0091             NC_30       agrl_78_lum     soilplant0091              null           snow001              null
      92  hru0092                topohru0092           hyd0092             NC_40       agrl_79_lum     soilplant0092              null           snow001              null
      93  hru0093                topohru0093           hyd0093             NC_40       agrl_80_lum     soilplant0093              null           snow001              null
      94  hru0094                topohru0094           hyd0094             NC_30       agrl_81_lum     soilplant0094              null           snow001              null
      95  hru0095                topohru0095           hyd0095             NC_40       agrl_82_lum     soilplant0095              null           snow001              null
      96  hru0096                topohru0096           hyd0096             NC_40       agrl_83_lum     soilplant0096              null           snow001              null
      97  hru0097                topohru0097           hyd0097          fuAdb2_0       agrl_84_lum     soilplant0097              null           snow001              null
      98  hru0098                topohru0098           hyd0098             NC_30       agrl_85_lum     soilplant0098              null           snow001              null
      99  hru0099                topohru0099           hyd0099             NC_30       agrl_86_lum     soilplant0099              null           snow001              null
     100  hru0100                topohru0100           hyd0100         fuAdb2_30       agrl_87_lum     soilplant0100              null           snow001              null
     101  hru0101                topohru0101           hyd0101             NC_30       agrl_88_lum     soilplant0101              null           snow001              null
     102  hru0102                topohru0102           hyd0102             NC_40       agrl_89_lum     soilplant0102              null           snow001              null
     103  hru0103                topohru0103           hyd0103             NC_40       agrl_90_lum     soilplant0103              null           snow001              null
     104  hru0104                topohru0104           hyd0104         fuAdb2_30       agrl_91_lum     soilplant0104              null           snow001              null
     105  hru0105                topohru0105           hyd0105         fuAdb2_40       agrl_92_lum     soilplant0105              null           snow001              null
     106  hru0106                topohru0106           hyd0106         fuAdb2_30       agrl_93_lum     soilplant0106              null           snow001              null
     107  hru0107                topohru0107           hyd0107           Gbbf2_0       agrl_94_lum     soilplant0107              null           snow001              null
     108  hru0108                topohru0108           hyd0108          Gbbf2_20       agrl_95_lum     soilplant0108              null           snow001              null
     109  hru0109                topohru0109           hyd0109         fuAdb2_30       agrl_96_lum     soilplant0109              null           snow001              null
     110  hru0110                topohru0110           hyd0110         fuAdb2_40       agrl_97_lum     soilplant0110              null           snow001              null
     111  hru0111                topohru0111           hyd0111              NC_0       agrl_98_lum     soilplant0111              null           snow001              null
     112  hru0112                topohru0112           hyd0112         fuAdb2_40       agrl_99_lum     soilplant0112              null           snow001              null
     113  hru0113                topohru0113           hyd0113         fuAdb2_30      agrl_100_lum     soilplant0113              null           snow001              null
     114  hru0114                topohru0114           hyd0114             NC_30      agrl_101_lum     soilplant0114              null           snow001              null
     115  hru0115                topohru0115           hyd0115         fuAdb2_40      agrl_102_lum     soilplant0115              null           snow001              null
     116  hru0116                topohru0116           hyd0116         fuAdb2_40      agrl_103_lum     soilplant0116              null           snow001              null
     117  hru0117                topohru0117           hyd0117              NC_0      agrl_104_lum     soilplant0117              null           snow001              null
     118  hru0118                topohru0118           hyd0118          uGdbt2_0      agrl_105_lum     soilplant0118              null           snow001              null
     119  hru0119                topohru0119           hyd0119           (G)bp_0      agrl_106_lum     soilplant0119              null           snow001              null
     120  hru0120                topohru0120           hyd0120         fuAdb2_40      agrl_107_lum     soilplant0120              null           snow001              null
     121  hru0121                topohru0121           hyd0121              NC_0      agrl_108_lum     soilplant0121              null           snow001              null
     122  hru0122                topohru0122           hyd0122              NC_0      agrl_109_lum     soilplant0122              null           snow001              null
     123  hru0123                topohru0123           hyd0123              NC_0      agrl_110_lum     soilplant0123              null           snow001              null
     124  hru0124                topohru0124           hyd0124             NC_30      agrl_111_lum     soilplant0124              null           snow001              null
     125  hru0125                topohru0125           hyd0125        f2uGdb2_20      agrl_112_lum     soilplant0125              null           snow001              null
     126  hru0126                topohru0126           hyd0126              NC_0      agrl_113_lum     soilplant0126              null           snow001              null
     127  hru0127                topohru0127           hyd0127              NC_0      agrl_114_lum     soilplant0127              null           snow001              null
     128  hru0128                topohru0128           hyd0128              NC_0      agrl_115_lum     soilplant0128              null           snow001              null
     129  hru0129                topohru0129           hyd0129           (G)bp_0      agrl_116_lum     soilplant0129              null           snow001              null
     130  hru0130                topohru0130           hyd0130           (G)bp_0      agrl_117_lum     soilplant0130              null           snow001              null
     131  hru0131                topohru0131           hyd0131         uGdbt2_30      agrl_118_lum     soilplant0131              null           snow001              null
     132  hru0132                topohru0132           hyd0132           (G)bp_0      agrl_119_lum     soilplant0132              null           snow001              null
     133  hru0133                topohru0133           hyd0133              NC_0      agrl_120_lum     soilplant0133              null           snow001              null
     134  hru0134                topohru0134           hyd0134            EDp_20      agrl_121_lum     soilplant0134              null           snow001              null
     135  hru0135                topohru0135           hyd0135              NC_0      agrl_122_lum     soilplant0135              null           snow001              null
     136  hru0136                topohru0136           hyd0136         uGdbt2_40      agrl_123_lum     soilplant0136              null           snow001              null
     137  hru0137                topohru0137           hyd0137            EDp_20      agrl_124_lum     soilplant0137              null           snow001              null
     138  hru0138                topohru0138           hyd0138              NC_0      agrl_125_lum     soilplant0138              null           snow001              null
     139  hru0139                topohru0139           hyd0139             NC_40      agrl_126_lum     soilplant0139              null           snow001              null
     140  hru0140                topohru0140           hyd0140          Gbbk4_20      agrl_127_lum     soilplant0140              null           snow001              null
     141  hru0141                topohru0141           hyd0141             NC_30      agrl_128_lum     soilplant0141              null           snow001              null
     142  hru0142                topohru0142           hyd0142         fuAdb2_30      agrl_129_lum     soilplant0142              null           snow001              null
     143  hru0143                topohru0143           hyd0143          Gbbk4_20      agrl_130_lum     soilplant0143              null           snow001              null
     144  hru0144                topohru0144           hyd0144          fuAdb2_0      agrl_131_lum     soilplant0144              null           snow001              null
     145  hru0145                topohru0145           hyd0145          Gbbk4_20      agrl_132_lum     soilplant0145              null           snow001              null
     146  hru0146                topohru0146           hyd0146          Gbbk4_20      agrl_133_lum     soilplant0146              null           snow001              null
     147  hru0147                topohru0147           hyd0147          Gbbk4_20      agrl_134_lum     soilplant0147              null           snow001              null
     148  hru0148                topohru0148           hyd0148          Gbbk4_20      agrl_135_lum     soilplant0148              null           snow001              null
     149  hru0149                topohru0149           hyd0149          Gbbk4_20      agrl_136_lum     soilplant0149              null           snow001              null
     150  hru0150                topohru0150           hyd0150          Gbbk4_20      agrl_137_lum     soilplant0150              null           snow001              null
     151  hru0151                topohru0151           hyd0151          Gbbk4_20      agrl_138_lum     soilplant0151              null           snow001              null
     152  hru0152                topohru0152           hyd0152          Gbbk4_20      agrl_139_lum     soilplant0152              null           snow001              null
     153  hru0153                topohru0153           hyd0153          Gbbk4_30      agrl_140_lum     soilplant0153              null           snow001              null
     154  hru0154                topohru0154           hyd0154          Gbbf2_20      agrl_141_lum     soilplant0154              null           snow001              null
     155  hru0155                topohru0155           hyd0155          Gbbk4_20      agrl_142_lum     soilplant0155              null           snow001              null
     156  hru0156                topohru0156           hyd0156          Gbbf2_20      agrl_143_lum     soilplant0156              null           snow001              null
     157  hru0157                topohru0157           hyd0157          Gbbf2_20      agrl_144_lum     soilplant0157              null           snow001              null
     158  hru0158                topohru0158           hyd0158            EIp_40      agrl_145_lum     soilplant0158              null           snow001              null
     159  hru0159                topohru0159           hyd0159          Gbbf2_20      agrl_146_lum     soilplant0159              null           snow001              null
     160  hru0160                topohru0160           hyd0160            EIp_40      agrl_147_lum     soilplant0160              null           snow001              null
     161  hru0161                topohru0161           hyd0161          Gbbf2_20      agrl_148_lum     soilplant0161              null           snow001              null
     162  hru0162                topohru0162           hyd0162          Gbbk4_20      agrl_149_lum     soilplant0162              null           snow001              null
     163  hru0163                topohru0163           hyd0163         fuAdb2_40      agrl_150_lum     soilplant0163              null           snow001              null
     164  hru0164                topohru0164           hyd0164           (G)bp_0      agrl_151_lum     soilplant0164              null           snow001              null
     165  hru0165                topohru0165           hyd0165           (G)bp_0      agrl_152_lum     soilplant0165              null           snow001              null
     166  hru0166                topohru0166           hyd0166          (G)bp_40      agrl_153_lum     soilplant0166              null           snow001              null
     167  hru0167                topohru0167           hyd0167          Gbbk4_20      agrl_154_lum     soilplant0167              null           snow001              null
     168  hru0168                topohru0168           hyd0168         fuAdb2_30      agrl_155_lum     soilplant0168              null           snow001              null
     169  hru0169                topohru0169           hyd0169         fuAdb2_30      agrl_156_lum     soilplant0169              null           snow001              null
     170  hru0170                topohru0170           hyd0170         fuAdb2_30      agrl_157_lum     soilplant0170              null           snow001              null
     171  hru0171                topohru0171           hyd0171         fuAdb2_30      agrl_158_lum     soilplant0171              null           snow001              null
     172  hru0172                topohru0172           hyd0172             NC_40      agrl_159_lum     soilplant0172              null           snow001              null
     173  hru0173                topohru0173           hyd0173         fuAdb2_30      agrl_160_lum     soilplant0173              null           snow001              null