hru.con: written by SWAT+ editor v2.1.0 on 2023-09-11 10:25 for SWAT+ rev.60.5.4
      id  name                gis_id          area           lat           lon          elev       hru               wst       cst      ovfl      rule   out_tot  
       1  hru0001                  0     111.00187      50.03677       4.99724     336.92913         1      s49979n4979e         0         0         0         0  
       2  hru0002                  0       4.96929      50.09212       5.03031     207.94016         2       s5011n4951e         0         0         0         0  
       3  hru0003                  0       1.62486      50.09490       5.05760     191.69524         3       s5011n4951e         0         0         0         0  
       4  hru0004                  0       8.10240      50.12228       5.09717     168.62920         4       s5004n5128e         0         0         0         0  
       5  hru0005                  0       2.76019      50.11861       5.11646     180.17877         5      s50165n5214e         0         0         0         0  
       6  hru0006                  0       4.60704      50.12344       5.14500     190.82940         6      s50165n5214e         0         0         0         0  
       7  hru0007                  0       1.70885      50.13862       5.12776     144.07921         7      s50165n5214e         0         0         0         0  
       8  hru0008                  0       0.46852      50.14231       5.14063     144.25874         8      s50165n5214e         0         0         0         0  
       9  hru0009                  0      38.90774      50.02861       5.00219     377.68539         9      s49979n4979e         0         0         0         0  
      10  hru0010                  0      86.30216      50.01962       5.00479     371.57068        10      s49979n4979e         0         0         0         0  
      11  hru0011                  0       0.39540      50.09263       5.02503     217.75038        11       s5011n4951e         0         0         0         0  
      12  hru0012                  0       0.21849      50.09390       5.02041     235.78889        12       s5011n4951e         0         0         0         0  
      13  hru0013                  0       0.05800      50.09272       5.02119     231.66958        13       s5011n4951e         0         0         0         0  
      14  hru0014                  0       0.01280      50.09369       5.02088     233.39640        14       s5011n4951e         0         0         0         0  
      15  hru0015                  0       0.05398      50.09198       5.01704     255.92422        15       s5011n4951e         0         0         0         0  
      16  hru0016                  0       0.53271      50.08954       5.01205     271.49698        16       s5011n4951e         0         0         0         0  
      17  hru0017                  0       0.09917      50.08937       5.01294     269.13738        17       s5011n4951e         0         0         0         0  
      18  hru0018                  0       0.09489      50.09072       5.01539     263.24252        18       s5011n4951e         0         0         0         0  
      19  hru0019                  0      15.86491      50.13648       5.13501     165.63654        19      s50165n5214e         0         0         0         0  
      20  hru0020                  0       0.28668      50.06398       5.05416     339.89855        20       s5004n5128e         0         0         0         0  
      21  hru0021                  0       0.37776      50.06647       5.04794     333.39313        21       s5004n5128e         0         0         0         0  
      22  hru0022                  0       0.80802      50.06810       5.05479     306.65502        22       s5004n5128e         0         0         0         0  
      23  hru0023                  0       0.20936      50.06989       5.04622     301.92882        23       s5004n5128e         0         0         0         0  
      24  hru0024                  0       0.11002      50.06641       5.05131     327.51325        24       s5004n5128e         0         0         0         0  
      25  hru0025                  0       0.18659      50.06859       5.05070     309.08622        25       s5004n5128e         0         0         0         0  
      26  hru0026                  0       0.64947      50.07071       5.05820     294.16895        26       s5004n5128e         0         0         0         0  
      27  hru0027                  0       0.01464      50.06725       5.06151     324.28400        27       s5004n5128e         0         0         0         0  
      28  hru0028                  0       0.00714      50.06746       5.06024     322.55516        28       s5004n5128e         0         0         0         0  
      29  hru0029                  0       0.00608      50.06815       5.06002     320.04975        29       s5004n5128e         0         0         0         0  
      30  hru0030                  0       0.00968      50.06821       5.05947     319.05480        30       s5004n5128e         0         0         0         0  
      31  hru0031                  0       0.23652      50.07021       5.04041     328.08260        31       s5004n5128e         0         0         0         0  
      32  hru0032                  0       0.01833      50.06521       5.01353     259.38718        32       s5011n4951e         0         0         0         0  
      33  hru0033                  0       0.00593      50.06690       5.01316     251.33777        33       s5011n4951e         0         0         0         0  
      34  hru0034                  0       0.00815      50.06576       5.01335     256.40813        34       s5011n4951e         0         0         0         0  
      35  hru0035                  0       0.02686      50.06937       5.01372     238.80741        35       s5011n4951e         0         0         0         0  
      36  hru0036                  0       0.11872      50.06909       5.01358     240.46159        36       s5011n4951e         0         0         0         0  
      37  hru0037                  0       0.01466      50.06480       5.01380     261.93849        37       s5011n4951e         0         0         0         0  
      38  hru0038                  0       0.01142      50.06436       5.01429     265.53688        38       s5011n4951e         0         0         0         0  
      39  hru0039                  0       0.03658      50.06400       5.01478     268.51660        39       s5011n4951e         0         0         0         0  
      40  hru0040                  0       0.01703      50.07438       5.01768     224.89316        40       s5011n4951e         0         0         0         0  
      41  hru0041                  0       0.09552      50.07420       5.01780     225.22747        41       s5011n4951e         0         0         0         0  
      42  hru0042                  0       0.01405      50.07456       5.01770     224.95550        42       s5011n4951e         0         0         0         0  
      43  hru0043                  0       0.02086      50.07336       5.01807     225.83757        43       s5011n4951e         0         0         0         0  
      44  hru0044                  0       0.01653      50.07360       5.01814     225.89430        44       s5011n4951e         0         0         0         0  
      45  hru0045                  0       0.08508      50.07150       5.02127     229.65920        45       s5011n4951e         0         0         0         0  
      46  hru0046                  0       0.08233      50.07189       5.02005     228.55279        46       s5011n4951e         0         0         0         0  
      47  hru0047                  0       0.02350      50.07219       5.01916     227.81371        47       s5011n4951e         0         0         0         0  
      48  hru0048                  0       0.01981      50.07203       5.01950     228.07277        48       s5011n4951e         0         0         0         0  
      49  hru0049                  0       0.06569      50.06951       5.02144     232.10680        49       s5011n4951e         0         0         0         0  
      50  hru0050                  0       0.06671      50.06905       5.02277     232.54456        50       s5011n4951e         0         0         0         0  
      51  hru0051                  0       0.28736      50.06844       5.02224     234.34606        51       s5011n4951e         0         0         0         0  
      52  hru0052                  0       0.07160      50.06929       5.02153     232.50528        52       s5011n4951e         0         0         0         0  
      53  hru0053                  0       0.57607      50.06874       5.02232     233.45796        53       s5011n4951e         0         0         0         0  
      54  hru0054                  0       0.15801      50.07623       5.03656     306.36916        54       s5011n4951e         0         0         0         0  
      55  hru0055                  0       0.31120      50.07405       5.03667     322.76881        55       s5011n4951e         0         0         0         0  
      56  hru0056                  0       0.79561      50.09354       5.03329     201.66558        56       s5011n4951e         0         0         0         0  
      57  hru0057                  0       0.23228      50.09440       5.03751     202.41192        57       s5011n4951e         0         0         0         0  
      58  hru0058                  0       0.10998      50.09492       5.03771     207.72513        58       s5011n4951e         0         0         0         0  
      59  hru0059                  0       0.02851      50.09368       5.03982     198.21913        59       s5011n4951e         0         0         0         0  
      60  hru0060                  0       1.19246      50.09566       5.03963     220.10787        60       s5011n4951e         0         0         0         0  
      61  hru0061                  0       0.17643      50.09504       5.03531     207.73998        61       s5011n4951e         0         0         0         0  
      62  hru0062                  0       0.12577      50.09620       5.03699     213.24748        62       s5011n4951e         0         0         0         0  
      63  hru0063                  0       0.39797      50.09649       5.03608     209.60809        63       s5011n4951e         0         0         0         0  
      64  hru0064                  0       0.22933      50.09588       5.03364     207.95009        64       s5011n4951e         0         0         0         0  
      65  hru0065                  0       0.33942      50.09560       5.03265     210.02824        65       s5011n4951e         0         0         0         0  
      66  hru0066                  0       0.54680      50.09591       5.03251     212.79556        66       s5011n4951e         0         0         0         0  
      67  hru0067                  0       0.32190      50.09640       5.03825     222.33596        67       s5011n4951e         0         0         0         0  
      68  hru0068                  0       1.20517      50.09710       5.03895     225.09625        68       s5011n4951e         0         0         0         0  
      69  hru0069                  0       0.04004      50.09800       5.03577     214.10206        69       s5011n4951e         0         0         0         0  
      70  hru0070                  0       0.30487      50.09848       5.03833     227.69413        70       s5011n4951e         0         0         0         0  
      71  hru0071                  0       0.08033      50.09796       5.04704     218.87420        71       s5011n4951e         0         0         0         0  
      72  hru0072                  0       0.46142      50.09999       5.03946     236.75111        72       s5011n4951e         0         0         0         0  
      73  hru0073                  0       0.00996      50.09802       5.03935     228.88696        73       s5011n4951e         0         0         0         0  
      74  hru0074                  0       0.04717      50.10152       5.04012     242.29918        74       s5011n4951e         0         0         0         0  
      75  hru0075                  0       0.00538      50.09808       5.03922     229.31196        75       s5011n4951e         0         0         0         0  
      76  hru0076                  0       0.38832      50.09809       5.03816     225.43624        76       s5011n4951e         0         0         0         0  
      77  hru0077                  0       0.00767      50.09829       5.03888     230.13741        77       s5011n4951e         0         0         0         0  
      78  hru0078                  0       1.72502      50.09969       5.03980     235.60148        78       s5011n4951e         0         0         0         0  
      79  hru0079                  0       0.07931      50.09871       5.03696     220.09750        79       s5011n4951e         0         0         0         0  
      80  hru0080                  0       0.01080      50.10012       5.03382     226.64439        80       s5011n4951e         0         0         0         0  
      81  hru0081                  0       0.26242      50.09910       5.03889     233.06996        81       s5011n4951e         0         0         0         0  
      82  hru0082                  0       0.11612      50.09978       5.03371     225.11103        82       s5011n4951e         0         0         0         0  
      83  hru0083                  0       0.02345      50.09954       5.03367     223.54824        83       s5011n4951e         0         0         0         0  
      84  hru0084                  0       0.38437      50.10042       5.03914     237.30778        84       s5011n4951e         0         0         0         0  
      85  hru0085                  0       0.01933      50.10191       5.04228     242.27209        85       s5011n4951e         0         0         0         0  
      86  hru0086                  0       0.24372      50.10213       5.03353     237.76105        86       s5011n4951e         0         0         0         0  
      87  hru0087                  0       0.43745      50.10197       5.03839     236.43735        87       s5011n4951e         0         0         0         0  
      88  hru0088                  0       0.03554      50.09473       5.02880     204.11396        88       s5011n4951e         0         0         0         0  
      89  hru0089                  0       0.01914      50.09528       5.01265     215.53040        89       s5011n4951e         0         0         0         0  
      90  hru0090                  0       0.01019      50.09509       5.01175     215.83347        90       s5011n4951e         0         0         0         0  
      91  hru0091                  0       0.01925      50.09473       5.01064     216.16461        91       s5011n4951e         0         0         0         0  
      92  hru0092                  0       0.02260      50.09427       5.00983     216.59270        92       s5011n4951e         0         0         0         0  
      93  hru0093                  0       0.01553      50.09531       5.01408     214.60521        93       s5011n4951e         0         0         0         0  
      94  hru0094                  0       0.01664      50.09540       5.01348     215.17941        94       s5011n4951e         0         0         0         0  
      95  hru0095                  0       0.01382      50.09546       5.01409     214.92754        95       s5011n4951e         0         0         0         0  
      96  hru0096                  0       0.01016      50.09500       5.01395     214.61987        96       s5011n4951e         0         0         0         0  
      97  hru0097                  0       0.00554      50.09687       5.02837     205.57568        97       s5011n4951e         0         0         0         0  
      98  hru0098                  0       0.13032      50.09594       5.02863     204.90382        98       s5011n4951e         0         0         0         0  
      99  hru0099                  0       0.00581      50.09663       5.02238     211.58094        99       s5011n4951e         0         0         0         0  
     100  hru0100                  0       0.03259      50.09642       5.02127     211.07981       100       s5011n4951e         0         0         0         0  
     101  hru0101                  0       0.02676      50.09741       5.02343     209.20853       101       s5011n4951e         0         0         0         0  
     102  hru0102                  0       0.04125      50.09728       5.01119     227.66395       102       s5011n4951e         0         0         0         0  
     103  hru0103                  0       0.02702      50.09620       5.02067     211.19080       103       s5011n4951e         0         0         0         0  
     104  hru0104                  0       0.03239      50.09666       5.02200     210.39149       104       s5011n4951e         0         0         0         0  
     105  hru0105                  0       0.01216      50.09705       5.02261     209.87631       105       s5011n4951e         0         0         0         0  
     106  hru0106                  0       0.00639      50.09735       5.02270     209.47597       106       s5011n4951e         0         0         0         0  
     107  hru0107                  0       0.02161      50.09749       5.01472     223.76496       107       s5011n4951e         0         0         0         0  
     108  hru0108                  0       0.10746      50.09857       5.02362     210.45686       108       s5011n4951e         0         0         0         0  
     109  hru0109                  0       0.04398      50.09820       5.02598     207.52340       109       s5011n4951e         0         0         0         0  
     110  hru0110                  0       0.03901      50.09800       5.02690     207.06703       110       s5011n4951e         0         0         0         0  
     111  hru0111                  0       0.00641      50.09775       5.02766     206.54530       111       s5011n4951e         0         0         0         0  
     112  hru0112                  0       0.00683      50.09738       5.02817     206.14532       112       s5011n4951e         0         0         0         0  
     113  hru0113                  0       0.02458      50.09755       5.02328     209.19698       113       s5011n4951e         0         0         0         0  
     114  hru0114                  0       0.00826      50.09760       5.02364     208.95366       114       s5011n4951e         0         0         0         0  
     115  hru0115                  0       0.00638      50.09809       5.02471     208.49629       115       s5011n4951e         0         0         0         0  
     116  hru0116                  0       0.12286      50.09833       5.02465     208.76891       116       s5011n4951e         0         0         0         0  
     117  hru0117                  0       0.01942      50.09783       5.02388     208.93138       117       s5011n4951e         0         0         0         0  
     118  hru0118                  0       0.17484      50.09531       5.06008     201.19776       118       s5004n5128e         0         0         0         0  
     119  hru0119                  0       0.19261      50.09428       5.05756     193.84403       119       s5011n4951e         0         0         0         0  
     120  hru0120                  0       0.55601      50.09441       5.05378     194.26926       120       s5011n4951e         0         0         0         0  
     121  hru0121                  0       0.00902      50.09440       5.05126     192.72347       121       s5011n4951e         0         0         0         0  
     122  hru0122                  0       0.31421      50.09458       5.05045     193.09721       122       s5011n4951e         0         0         0         0  
     123  hru0123                  0       0.00751      50.09567       5.05432     191.04442       123       s5011n4951e         0         0         0         0  
     124  hru0124                  0       0.00985      50.09397       5.04719     194.14816       124       s5011n4951e         0         0         0         0  
     125  hru0125                  0       0.01239      50.09434       5.04936     193.27516       125       s5011n4951e         0         0         0         0  
     126  hru0126                  0       0.00568      50.09454       5.05097     192.88579       126       s5011n4951e         0         0         0         0  
     127  hru0127                  0       0.00640      50.09472       5.05189     191.99679       127       s5011n4951e         0         0         0         0  
     128  hru0128                  0       0.02794      50.09555       5.05408     190.98779       128       s5011n4951e         0         0         0         0  
     129  hru0129                  0       0.04126      50.09418       5.05663     192.25943       129       s5011n4951e         0         0         0         0  
     130  hru0130                  0       0.02540      50.09491       5.05637     190.64186       130       s5011n4951e         0         0         0         0  
     131  hru0131                  0       0.00927      50.09631       5.05723     188.76186       131       s5011n4951e         0         0         0         0  
     132  hru0132                  0       0.01091      50.09504       5.05641     190.34324       132       s5011n4951e         0         0         0         0  
     133  hru0133                  0       0.12932      50.09578       5.05599     189.84459       133       s5011n4951e         0         0         0         0  
     134  hru0134                  0       0.00925      50.09569       5.05468     190.76258       134       s5011n4951e         0         0         0         0  
     135  hru0135                  0       0.01304      50.09549       5.05590     189.82761       135       s5011n4951e         0         0         0         0  
     136  hru0136                  0       0.00690      50.09706       5.06025     187.24217       136       s5011n4951e         0         0         0         0  
     137  hru0137                  0       0.02737      50.09648       5.05728     188.76291       137       s5011n4951e         0         0         0         0  
     138  hru0138                  0       0.08778      50.09694       5.05916     187.78266       138       s5011n4951e         0         0         0         0  
     139  hru0139                  0       0.06888      50.09672       5.05841     187.82013       139       s5011n4951e         0         0         0         0  
     140  hru0140                  0       0.29369      50.09796       5.04781     211.48512       140       s5011n4951e         0         0         0         0  
     141  hru0141                  0       0.01139      50.09732       5.06070     186.91255       141       s5011n4951e         0         0         0         0  
     142  hru0142                  0       0.00629      50.09746       5.06139     186.60528       142       s5004n5128e         0         0         0         0  
     143  hru0143                  0       0.11200      50.09797       5.04874     207.31557       143       s5011n4951e         0         0         0         0  
     144  hru0144                  0       0.05705      50.09751       5.06253     186.33115       144       s5004n5128e         0         0         0         0  
     145  hru0145                  0       0.28871      50.09178       5.07351     240.39482       145       s5004n5128e         0         0         0         0  
     146  hru0146                  0       0.40414      50.09224       5.07451     242.33176       146       s5004n5128e         0         0         0         0  
     147  hru0147                  0       1.07929      50.09242       5.07612     244.90957       147       s5004n5128e         0         0         0         0  
     148  hru0148                  0       0.03896      50.09266       5.07769     247.66869       148       s5004n5128e         0         0         0         0  
     149  hru0149                  0       0.05146      50.09290       5.08167     256.02072       149       s5004n5128e         0         0         0         0  
     150  hru0150                  0       0.89683      50.09301       5.08314     259.67839       150       s5004n5128e         0         0         0         0  
     151  hru0151                  0       0.29814      50.09325       5.08725     270.77573       151       s5004n5128e         0         0         0         0  
     152  hru0152                  0       0.21359      50.09315       5.08487     263.89944       152       s5004n5128e         0         0         0         0  
     153  hru0153                  0       0.16048      50.09479       5.07337     225.73704       153       s5004n5128e         0         0         0         0  
     154  hru0154                  0       0.33278      50.09564       5.07499     215.61312       154       s5004n5128e         0         0         0         0  
     155  hru0155                  0       0.60059      50.09410       5.07463     230.84603       155       s5004n5128e         0         0         0         0  
     156  hru0156                  0       0.00817      50.09599       5.07372     218.06525       156       s5004n5128e         0         0         0         0  
     157  hru0157                  0       0.23252      50.09745       5.07533     212.54722       157       s5004n5128e         0         0         0         0  
     158  hru0158                  0       0.24063      50.09855       5.08370     192.70596       158       s5004n5128e         0         0         0         0  
     159  hru0159                  0       0.14364      50.09693       5.07850     201.77192       159       s5004n5128e         0         0         0         0  
     160  hru0160                  0       0.10109      50.10005       5.08675     187.36188       160       s5004n5128e         0         0         0         0  
     161  hru0161                  0       0.08058      50.09777       5.08125     196.34047       161       s5004n5128e         0         0         0         0  
     162  hru0162                  0       0.62454      50.09884       5.09231     192.38775       162       s5004n5128e         0         0         0         0  
     163  hru0163                  0       0.06131      50.09569       5.06453     194.54177       163       s5004n5128e         0         0         0         0  
     164  hru0164                  0       0.10633      50.09499       5.06344     195.69204       164       s5004n5128e         0         0         0         0  
     165  hru0165                  0       0.34686      50.09298       5.06358     202.10233       165       s5004n5128e         0         0         0         0  
     166  hru0166                  0       0.08624      50.09133       5.06525     212.12039       166       s5004n5128e         0         0         0         0  
     167  hru0167                  0       0.04647      50.09040       5.06443     225.56454       167       s5004n5128e         0         0         0         0  
     168  hru0168                  0       0.04103      50.09699       5.06378     187.94990       168       s5004n5128e         0         0         0         0  
     169  hru0169                  0       0.01051      50.09714       5.06360     187.27952       169       s5004n5128e         0         0         0         0  
     170  hru0170                  0       0.01628      50.09732       5.06330     186.24920       170       s5004n5128e         0         0         0         0  
     171  hru0171                  0       0.00633      50.09731       5.06320     186.18842       171       s5004n5128e         0         0         0         0  
     172  hru0172                  0       0.02324      50.09728       5.06246     186.36536       172       s5004n5128e         0         0         0         0  
     173  hru0173                  0       0.02325      50.09784       5.06334     185.84450       173       s5004n5128e         0         0         0         0  
     174  hru0174                  0       0.02168      50.09823       5.06409     185.34082       174       s5004n5128e         0         0         0         0  
     175  hru0175                  0       0.03960      50.09793       5.06354     185.30979       175       s5004n5128e         0         0         0         0  
     176  hru0176                  0       0.09085      50.09648       5.06294     191.66515       176       s5004n5128e         0         0         0         0  
     177  hru0177                  0       0.13421      50.09684       5.06490     192.17828       177       s5004n5128e         0         0         0         0  
     178  hru0178                  0       0.01319      50.09773       5.06564     186.28591       178       s5004n5128e         0         0         0         0  
     179  hru0179                  0       0.00771      50.09789       5.06597     185.26688       179       s5004n5128e         0         0         0         0  
     180  hru0180                  0       0.02990      50.09793       5.06637     185.01597       180       s5004n5128e         0         0         0         0  
     181  hru0181                  0       0.16063      50.09625       5.06399     191.17125       181       s5004n5128e         0         0         0         0  
     182  hru0182                  0       0.04357      50.09761       5.06552     186.99393       182       s5004n5128e         0         0         0         0  