landuse.lum: written by SWAT+ editor v2.1.0 on 2023-09-07 14:03 for SWAT+ rev.60.5.4, edited manually on 2023-09-08 16:08:41 and edited with SWATfarmR 2.0.5 on 2023-10-30 14:37:00
name                         cal_group          plnt_com               mgt               cn2         cons_prac             urban            urb_ro           ov_mann              tile               sep               vfs              grww               bmp
agrl_1000_lum                     null     agrl_1000_com     agrl_1000_mgt        rc_strow_g     up_down_slope              null              null    convtill_nores              null              null              null              null              null
agrl_1001_lum                     null     agrl_1001_com     agrl_1001_mgt        rc_strow_g     up_down_slope              null              null    convtill_nores              null              null              null              null              null
agrl_1002_lum                     null     agrl_1002_com     agrl_1002_mgt        rc_strow_g     up_down_slope              null              null    convtill_nores              null              null              null              null              null
agrl_1003_lum                     null     agrl_1003_com     agrl_1003_mgt        rc_strow_g     up_down_slope              null              null    convtill_nores              null              null              null              null              null
agrl_1004_lum                     null     agrl_1004_com     agrl_1004_mgt        rc_strow_g     up_down_slope              null              null    convtill_nores              null              null              null              null              null
agrl_1005_lum                     null     agrl_1005_com     agrl_1005_mgt        rc_strow_g     up_down_slope              null              null    convtill_nores              null              null              null              null              null
agrl_1006_lum                     null     agrl_1006_com     agrl_1006_mgt        rc_strow_g     up_down_slope              null              null    convtill_nores              null              null              null              null              null
agrl_1007_lum                     null     agrl_1007_com     agrl_1007_mgt        rc_strow_g     up_down_slope              null              null    convtill_nores              null              null              null              null              null
agrl_1008_lum                     null     agrl_1008_com     agrl_1008_mgt        rc_strow_g     up_down_slope              null              null    convtill_nores              null              null              null              null              null
agrl_1009_lum                     null     agrl_1009_com     agrl_1009_mgt        rc_strow_g     up_down_slope              null              null    convtill_nores              null              null              null              null              null
agrl_100_lum                      null      agrl_100_com      agrl_100_mgt        rc_strow_g     up_down_slope              null              null    convtill_nores              null              null              null              null              null
agrl_1010_lum                     null     agrl_1010_com     agrl_1010_mgt        rc_strow_g     up_down_slope              null              null    convtill_nores              null              null              null              null              null
agrl_1011_lum                     null     agrl_1011_com     agrl_1011_mgt        rc_strow_g     up_down_slope              null              null    convtill_nores              null              null              null              null              null
agrl_1012_lum                     null     agrl_1012_com     agrl_1012_mgt        rc_strow_g     up_down_slope              null              null    convtill_nores              null              null              null              null              null
agrl_1013_lum                     null     agrl_1013_com     agrl_1013_mgt        rc_strow_g     up_down_slope              null              null    convtill_nores              null              null              null              null              null
agrl_1014_lum                     null     agrl_1014_com     agrl_1014_mgt        rc_strow_g     up_down_slope              null              null    convtill_nores              null              null              null              null              null
agrl_1015_lum                     null     agrl_1015_com     agrl_1015_mgt        rc_strow_g     up_down_slope              null              null    convtill_nores              null              null              null              null              null
agrl_1016_lum                     null     agrl_1016_com     agrl_1016_mgt        rc_strow_g     up_down_slope              null              null    convtill_nores              null              null              null              null              null
agrl_1017_lum                     null     agrl_1017_com     agrl_1017_mgt        rc_strow_g     up_down_slope              null              null    convtill_nores              null              null              null              null              null
agrl_1018_lum                     null     agrl_1018_com     agrl_1018_mgt        rc_strow_g     up_down_slope              null              null    convtill_nores              null              null              null              null              null
agrl_1019_lum                     null     agrl_1019_com     agrl_1019_mgt        rc_strow_g     up_down_slope              null              null    convtill_nores              null              null              null              null              null
agrl_101_lum                      null      agrl_101_com      agrl_101_mgt        rc_strow_g     up_down_slope              null              null    convtill_nores              null              null              null              null              null
agrl_1020_lum                     null     agrl_1020_com     agrl_1020_mgt        rc_strow_g     up_down_slope              null              null    convtill_nores              null              null              null              null              null
agrl_1021_lum                     null     agrl_1021_com     agrl_1021_mgt        rc_strow_g     up_down_slope              null              null    convtill_nores              null              null              null              null              null
agrl_1022_lum                     null     agrl_1022_com     agrl_1022_mgt        rc_strow_g     up_down_slope              null              null    convtill_nores              null              null              null              null              null
agrl_1023_lum                     null     agrl_1023_com     agrl_1023_mgt        rc_strow_g     up_down_slope              null              null    convtill_nores              null              null              null              null              null
agrl_1024_lum                     null     agrl_1024_com     agrl_1024_mgt        rc_strow_g     up_down_slope              null              null    convtill_nores              null              null              null              null              null
agrl_1025_lum                     null     agrl_1025_com     agrl_1025_mgt        rc_strow_g     up_down_slope              null              null    convtill_nores              null              null              null              null              null
agrl_1026_lum                     null     agrl_1026_com     agrl_1026_mgt        rc_strow_g     up_down_slope              null              null    convtill_nores              null              null              null              null              null
agrl_1027_lum                     null     agrl_1027_com     agrl_1027_mgt        rc_strow_g     up_down_slope              null              null    convtill_nores              null              null              null              null              null
agrl_1028_lum                     null     agrl_1028_com     agrl_1028_mgt        rc_strow_g     up_down_slope              null              null    convtill_nores              null              null              null              null              null
agrl_1029_lum                     null     agrl_1029_com     agrl_1029_mgt        rc_strow_g     up_down_slope              null              null    convtill_nores              null              null              null              null              null
agrl_102_lum                      null      agrl_102_com      agrl_102_mgt        rc_strow_g     up_down_slope              null              null    convtill_nores              null              null              null              null              null
agrl_1030_lum                     null     agrl_1030_com     agrl_1030_mgt        rc_strow_g     up_down_slope              null              null    convtill_nores              null              null              null              null              null
agrl_1031_lum                     null     agrl_1031_com     agrl_1031_mgt        rc_strow_g     up_down_slope              null              null    convtill_nores              null              null              null              null              null
agrl_1032_lum                     null     agrl_1032_com     agrl_1032_mgt        rc_strow_g     up_down_slope              null              null    convtill_nores              null              null              null              null              null
agrl_1033_lum                     null     agrl_1033_com     agrl_1033_mgt        rc_strow_g     up_down_slope              null              null    convtill_nores              null              null              null              null              null
agrl_1034_lum                     null     agrl_1034_com     agrl_1034_mgt        rc_strow_g     up_down_slope              null              null    convtill_nores              null              null              null              null              null
agrl_1035_lum                     null     agrl_1035_com     agrl_1035_mgt        rc_strow_g     up_down_slope              null              null    convtill_nores              null              null              null              null              null
agrl_1036_lum                     null     agrl_1036_com     agrl_1036_mgt        rc_strow_g     up_down_slope              null              null    convtill_nores              null              null              null              null              null
agrl_1037_lum                     null     agrl_1037_com     agrl_1037_mgt        rc_strow_g     up_down_slope              null              null    convtill_nores              null              null              null              null              null
agrl_1038_lum                     null     agrl_1038_com     agrl_1038_mgt        rc_strow_g     up_down_slope              null              null    convtill_nores              null              null              null              null              null
agrl_1039_lum                     null     agrl_1039_com     agrl_1039_mgt        rc_strow_g     up_down_slope              null              null    convtill_nores              null              null              null              null              null
agrl_103_lum                      null      agrl_103_com      agrl_103_mgt        rc_strow_g     up_down_slope              null              null    convtill_nores              null              null              null              null              null
agrl_1040_lum                     null     agrl_1040_com     agrl_1040_mgt        rc_strow_g     up_down_slope              null              null    convtill_nores              null              null              null              null              null
agrl_1041_lum                     null     agrl_1041_com     agrl_1041_mgt        rc_strow_g     up_down_slope              null              null    convtill_nores              null              null              null              null              null
agrl_1042_lum                     null     agrl_1042_com     agrl_1042_mgt        rc_strow_g     up_down_slope              null              null    convtill_nores              null              null              null              null              null
agrl_1043_lum                     null     agrl_1043_com     agrl_1043_mgt        rc_strow_g     up_down_slope              null              null    convtill_nores              null              null              null              null              null
agrl_1044_lum                     null     agrl_1044_com     agrl_1044_mgt        rc_strow_g     up_down_slope              null              null    convtill_nores              null              null              null              null              null
agrl_1045_lum                     null     agrl_1045_com     agrl_1045_mgt        rc_strow_g     up_down_slope              null              null    convtill_nores              null              null              null              null              null
agrl_1046_lum                     null     agrl_1046_com     agrl_1046_mgt        rc_strow_g     up_down_slope              null              null    convtill_nores              null              null              null              null              null
agrl_1047_lum                     null     agrl_1047_com     agrl_1047_mgt        rc_strow_g     up_down_slope              null              null    convtill_nores              null              null              null              null              null
agrl_1048_lum                     null     agrl_1048_com     agrl_1048_mgt        rc_strow_g     up_down_slope              null              null    convtill_nores              null              null              null              null              null
agrl_1049_lum                     null     agrl_1049_com     agrl_1049_mgt        rc_strow_g     up_down_slope              null              null    convtill_nores              null              null              null              null              null
agrl_104_lum                      null      agrl_104_com      agrl_104_mgt        rc_strow_g     up_down_slope              null              null    convtill_nores              null              null              null              null              null
agrl_1050_lum                     null     agrl_1050_com     agrl_1050_mgt        rc_strow_g     up_down_slope              null              null    convtill_nores              null              null              null              null              null
agrl_1051_lum                     null     agrl_1051_com     agrl_1051_mgt        rc_strow_g     up_down_slope              null              null    convtill_nores              null              null              null              null              null
agrl_1052_lum                     null     agrl_1052_com     agrl_1052_mgt        rc_strow_g     up_down_slope              null              null    convtill_nores              null              null              null              null              null
agrl_1053_lum                     null     agrl_1053_com     agrl_1053_mgt        rc_strow_g     up_down_slope              null              null    convtill_nores              null              null              null              null              null
agrl_1054_lum                     null     agrl_1054_com     agrl_1054_mgt        rc_strow_g     up_down_slope              null              null    convtill_nores              null              null              null              null              null
agrl_1055_lum                     null     agrl_1055_com     agrl_1055_mgt        rc_strow_g     up_down_slope              null              null    convtill_nores              null              null              null              null              null
agrl_1056_lum                     null     agrl_1056_com     agrl_1056_mgt        rc_strow_g     up_down_slope              null              null    convtill_nores              null              null              null              null              null
agrl_1057_lum                     null     agrl_1057_com     agrl_1057_mgt        rc_strow_g     up_down_slope              null              null    convtill_nores              null              null              null              null              null
agrl_1058_lum                     null     agrl_1058_com     agrl_1058_mgt        rc_strow_g     up_down_slope              null              null    convtill_nores              null              null              null              null              null
agrl_1059_lum                     null     agrl_1059_com     agrl_1059_mgt        rc_strow_g     up_down_slope              null              null    convtill_nores              null              null              null              null              null
agrl_105_lum                      null      agrl_105_com      agrl_105_mgt        rc_strow_g     up_down_slope              null              null    convtill_nores              null              null              null              null              null
agrl_1060_lum                     null     agrl_1060_com     agrl_1060_mgt        rc_strow_g     up_down_slope              null              null    convtill_nores              null              null              null              null              null
agrl_1061_lum                     null     agrl_1061_com     agrl_1061_mgt        rc_strow_g     up_down_slope              null              null    convtill_nores              null              null              null              null              null
agrl_1062_lum                     null     agrl_1062_com     agrl_1062_mgt        rc_strow_g     up_down_slope              null              null    convtill_nores              null              null              null              null              null
agrl_1063_lum                     null     agrl_1063_com     agrl_1063_mgt        rc_strow_g     up_down_slope              null              null    convtill_nores              null              null              null              null              null
agrl_1064_lum                     null     agrl_1064_com     agrl_1064_mgt        rc_strow_g     up_down_slope              null              null    convtill_nores              null              null              null              null              null
agrl_1065_lum                     null     agrl_1065_com     agrl_1065_mgt        rc_strow_g     up_down_slope              null              null    convtill_nores              null              null              null              null              null
agrl_1066_lum                     null     agrl_1066_com     agrl_1066_mgt        rc_strow_g     up_down_slope              null              null    convtill_nores              null              null              null              null              null
agrl_1067_lum                     null     agrl_1067_com     agrl_1067_mgt        rc_strow_g     up_down_slope              null              null    convtill_nores              null              null              null              null              null
agrl_1068_lum                     null     agrl_1068_com     agrl_1068_mgt        rc_strow_g     up_down_slope              null              null    convtill_nores              null              null              null              null              null
agrl_1069_lum                     null     agrl_1069_com     agrl_1069_mgt        rc_strow_g     up_down_slope              null              null    convtill_nores              null              null              null              null              null
agrl_106_lum                      null      agrl_106_com      agrl_106_mgt        rc_strow_g     up_down_slope              null              null    convtill_nores              null              null              null              null              null
agrl_1070_lum                     null     agrl_1070_com     agrl_1070_mgt        rc_strow_g     up_down_slope              null              null    convtill_nores              null              null              null              null              null
agrl_1071_lum                     null     agrl_1071_com     agrl_1071_mgt        rc_strow_g     up_down_slope              null              null    convtill_nores              null              null              null              null              null
agrl_1072_lum                     null     agrl_1072_com     agrl_1072_mgt        rc_strow_g     up_down_slope              null              null    convtill_nores              null              null              null              null              null
agrl_1073_lum                     null     agrl_1073_com     agrl_1073_mgt        rc_strow_g     up_down_slope              null              null    convtill_nores              null              null              null              null              null
agrl_1074_lum                     null     agrl_1074_com     agrl_1074_mgt        rc_strow_g     up_down_slope              null              null    convtill_nores              null              null              null              null              null
agrl_1075_lum                     null     agrl_1075_com     agrl_1075_mgt        rc_strow_g     up_down_slope              null              null    convtill_nores              null              null              null              null              null
agrl_1076_lum                     null     agrl_1076_com     agrl_1076_mgt        rc_strow_g     up_down_slope              null              null    convtill_nores              null              null              null              null              null
agrl_1077_lum                     null     agrl_1077_com     agrl_1077_mgt        rc_strow_g     up_down_slope              null              null    convtill_nores              null              null              null              null              null
agrl_1078_lum                     null     agrl_1078_com     agrl_1078_mgt        rc_strow_g     up_down_slope              null              null    convtill_nores              null              null              null              null              null
agrl_1079_lum                     null     agrl_1079_com     agrl_1079_mgt        rc_strow_g     up_down_slope              null              null    convtill_nores              null              null              null              null              null
agrl_107_lum                      null      agrl_107_com      agrl_107_mgt        rc_strow_g     up_down_slope              null              null    convtill_nores              null              null              null              null              null
agrl_1080_lum                     null     agrl_1080_com     agrl_1080_mgt        rc_strow_g     up_down_slope              null              null    convtill_nores              null              null              null              null              null
agrl_1081_lum                     null     agrl_1081_com     agrl_1081_mgt        rc_strow_g     up_down_slope              null              null    convtill_nores              null              null              null              null              null
agrl_1082_lum                     null     agrl_1082_com     agrl_1082_mgt        rc_strow_g     up_down_slope              null              null    convtill_nores              null              null              null              null              null
agrl_1083_lum                     null     agrl_1083_com     agrl_1083_mgt        rc_strow_g     up_down_slope              null              null    convtill_nores              null              null              null              null              null
agrl_1084_lum                     null     agrl_1084_com     agrl_1084_mgt        rc_strow_g     up_down_slope              null              null    convtill_nores              null              null              null              null              null
agrl_1085_lum                     null     agrl_1085_com     agrl_1085_mgt        rc_strow_g     up_down_slope              null              null    convtill_nores              null              null              null              null              null
agrl_1086_lum                     null     agrl_1086_com     agrl_1086_mgt        rc_strow_g     up_down_slope              null              null    convtill_nores              null              null              null              null              null
agrl_1087_lum                     null     agrl_1087_com     agrl_1087_mgt        rc_strow_g     up_down_slope              null              null    convtill_nores              null              null              null              null              null
agrl_1088_lum                     null     agrl_1088_com     agrl_1088_mgt        rc_strow_g     up_down_slope              null              null    convtill_nores              null              null              null              null              null
agrl_1089_lum                     null     agrl_1089_com     agrl_1089_mgt        rc_strow_g     up_down_slope              null              null    convtill_nores              null              null              null              null              null
agrl_108_lum                      null      agrl_108_com      agrl_108_mgt        rc_strow_g     up_down_slope              null              null    convtill_nores              null              null              null              null              null
agrl_1090_lum                     null     agrl_1090_com     agrl_1090_mgt        rc_strow_g     up_down_slope              null              null    convtill_nores              null              null              null              null              null
agrl_1091_lum                     null     agrl_1091_com     agrl_1091_mgt        rc_strow_g     up_down_slope              null              null    convtill_nores              null              null              null              null              null
agrl_1092_lum                     null     agrl_1092_com     agrl_1092_mgt        rc_strow_g     up_down_slope              null              null    convtill_nores              null              null              null              null              null
agrl_1093_lum                     null     agrl_1093_com     agrl_1093_mgt        rc_strow_g     up_down_slope              null              null    convtill_nores              null              null              null              null              null
agrl_1094_lum                     null     agrl_1094_com     agrl_1094_mgt        rc_strow_g     up_down_slope              null              null    convtill_nores              null              null              null              null              null
agrl_1096_lum                     null     agrl_1096_com     agrl_1096_mgt        rc_strow_g     up_down_slope              null              null    convtill_nores              null              null              null              null              null
agrl_1097_lum                     null     agrl_1097_com     agrl_1097_mgt        rc_strow_g     up_down_slope              null              null    convtill_nores              null              null              null              null              null
agrl_1098_lum                     null     agrl_1098_com     agrl_1098_mgt        rc_strow_g     up_down_slope              null              null    convtill_nores              null              null              null              null              null
agrl_1099_lum                     null     agrl_1099_com     agrl_1099_mgt        rc_strow_g     up_down_slope              null              null    convtill_nores              null              null              null              null              null
agrl_109_lum                      null      agrl_109_com      agrl_109_mgt        rc_strow_g     up_down_slope              null              null    convtill_nores              null              null              null              null              null
agrl_10_lum                       null       agrl_10_com       agrl_10_mgt        rc_strow_g     up_down_slope              null              null    convtill_nores              null              null              null              null              null
agrl_1101_lum                     null     agrl_1101_com     agrl_1101_mgt        rc_strow_g     up_down_slope              null              null    convtill_nores              null              null              null              null              null
agrl_1102_lum                     null     agrl_1102_com     agrl_1102_mgt        rc_strow_g     up_down_slope              null              null    convtill_nores              null              null              null              null              null
agrl_1103_lum                     null     agrl_1103_com     agrl_1103_mgt        rc_strow_g     up_down_slope              null              null    convtill_nores              null              null              null              null              null
agrl_1104_lum                     null     agrl_1104_com     agrl_1104_mgt        rc_strow_g     up_down_slope              null              null    convtill_nores              null              null              null              null              null
agrl_1105_lum                     null     agrl_1105_com     agrl_1105_mgt        rc_strow_g     up_down_slope              null              null    convtill_nores              null              null              null              null              null