ls_unit.def: written by SWAT+ editor v2.1.0 on 2023-09-11 10:26 for SWAT+ rev.60.5.4
6832
      id              name          area  elem_tot  elements  
       1           rtu0001     111.00187         1         1  
       2           rtu0002       4.96929         1         2  
       3           rtu0003       1.62486         1         3  
       4           rtu0004       8.10240         1         4  
       5           rtu0005       2.76019         1         5  
       6           rtu0006       4.60704         1         6  
       7           rtu0007       1.70885         1         7  
       8           rtu0008       0.46852         1         8  
       9           rtu0009      38.90774         1         9  
      10           rtu0010      86.30216         1        10  
      11           rtu0011       0.39540         1        11  
      12           rtu0012       0.21849         1        12  
      13           rtu0013       0.05800         1        13  
      14           rtu0014       0.01280         1        14  
      15           rtu0015       0.05398         1        15  
      16           rtu0016       0.53271         1        16  
      17           rtu0017       0.09917         1        17  
      18           rtu0018       0.09489         1        18  
      19           rtu0019      15.86491         1        19  
      20           rtu0020       0.28668         1        20  
      21           rtu0021       0.37776         1        21  
      22           rtu0022       0.80802         1        22  
      23           rtu0023       0.20936         1        23  
      24           rtu0024       0.11002         1        24  
      25           rtu0025       0.18659         1        25  
      26           rtu0026       0.64947         1        26  
      27           rtu0027       0.01464         1        27  
      28           rtu0028       0.00714         1        28  
      29           rtu0029       0.00608         1        29  
      30           rtu0030       0.00968         1        30  
      31           rtu0031       0.23652         1        31  
      32           rtu0032       0.01833         1        32  
      33           rtu0033       0.00593         1        33  
      34           rtu0034       0.00815         1        34  
      35           rtu0035       0.02686         1        35  
      36           rtu0036       0.11872         1        36  
      37           rtu0037       0.01466         1        37  
      38           rtu0038       0.01142         1        38  
      39           rtu0039       0.03658         1        39  
      40           rtu0040       0.01703         1        40  
      41           rtu0041       0.09552         1        41  
      42           rtu0042       0.01405         1        42  
      43           rtu0043       0.02086         1        43  
      44           rtu0044       0.01653         1        44  
      45           rtu0045       0.08508         1        45  
      46           rtu0046       0.08233         1        46  
      47           rtu0047       0.02350         1        47  
      48           rtu0048       0.01981         1        48  
      49           rtu0049       0.06569         1        49  
      50           rtu0050       0.06671         1        50  
      51           rtu0051       0.28736         1        51  
      52           rtu0052       0.07160         1        52  
      53           rtu0053       0.57607         1        53  
      54           rtu0054       0.15801         1        54  
      55           rtu0055       0.31120         1        55  
      56           rtu0056       0.79561         1        56  
      57           rtu0057       0.23228         1        57  
      58           rtu0058       0.10998         1        58  
      59           rtu0059       0.02851         1        59  
      60           rtu0060       1.19246         1        60  
      61           rtu0061       0.17643         1        61  
      62           rtu0062       0.12577         1        62  
      63           rtu0063       0.39797         1        63  
      64           rtu0064       0.22933         1        64  
      65           rtu0065       0.33942         1        65  
      66           rtu0066       0.54680         1        66  
      67           rtu0067       0.32190         1        67  
      68           rtu0068       1.20517         1        68  
      69           rtu0069       0.04004         1        69  
      70           rtu0070       0.30487         1        70  
      71           rtu0071       0.08033         1        71  
      72           rtu0072       0.46142         1        72  
      73           rtu0073       0.00996         1        73  
      74           rtu0074       0.04717         1        74  
      75           rtu0075       0.00538         1        75  
      76           rtu0076       0.38832         1        76  
      77           rtu0077       0.00767         1        77  
      78           rtu0078       1.72502         1        78  
      79           rtu0079       0.07931         1        79  
      80           rtu0080       0.01080         1        80  
      81           rtu0081       0.26242         1        81  
      82           rtu0082       0.11612         1        82  
      83           rtu0083       0.02345         1        83  
      84           rtu0084       0.38437         1        84  
      85           rtu0085       0.01933         1        85  
      86           rtu0086       0.24372         1        86  
      87           rtu0087       0.43745         1        87  
      88           rtu0088       0.03554         1        88  
      89           rtu0089       0.01914         1        89  
      90           rtu0090       0.01019         1        90  
      91           rtu0091       0.01925         1        91  
      92           rtu0092       0.02260         1        92  
      93           rtu0093       0.01553         1        93  
      94           rtu0094       0.01664         1        94  
      95           rtu0095       0.01382         1        95  
      96           rtu0096       0.01016         1        96  
      97           rtu0097       0.00554         1        97  
      98           rtu0098       0.13032         1        98  
      99           rtu0099       0.00581         1        99  
     100           rtu0100       0.03259         1       100  
     101           rtu0101       0.02676         1       101  
     102           rtu0102       0.04125         1       102  
     103           rtu0103       0.02702         1       103  
     104           rtu0104       0.03239         1       104  
     105           rtu0105       0.01216         1       105  
     106           rtu0106       0.00639         1       106  
     107           rtu0107       0.02161         1       107  
     108           rtu0108       0.10746         1       108  
     109           rtu0109       0.04398         1       109  
     110           rtu0110       0.03901         1       110  
     111           rtu0111       0.00641         1       111  
     112           rtu0112       0.00683         1       112  
     113           rtu0113       0.02458         1       113  
     114           rtu0114       0.00826         1       114  
     115           rtu0115       0.00638         1       115  
     116           rtu0116       0.12286         1       116  
     117           rtu0117       0.01942         1       117  
     118           rtu0118       0.17484         1       118  
     119           rtu0119       0.19261         1       119  
     120           rtu0120       0.55601         1       120  
     121           rtu0121       0.00902         1       121  
     122           rtu0122       0.31421         1       122  
     123           rtu0123       0.00751         1       123  
     124           rtu0124       0.00985         1       124  
     125           rtu0125       0.01239         1       125  
     126           rtu0126       0.00568         1       126  
     127           rtu0127       0.00640         1       127  
     128           rtu0128       0.02794         1       128  
     129           rtu0129       0.04126         1       129  
     130           rtu0130       0.02540         1       130  
     131           rtu0131       0.00927         1       131  
     132           rtu0132       0.01091         1       132  
     133           rtu0133       0.12932         1       133  
     134           rtu0134       0.00925         1       134  
     135           rtu0135       0.01304         1       135  
     136           rtu0136       0.00690         1       136  
     137           rtu0137       0.02737         1       137  
     138           rtu0138       0.08778         1       138  
     139           rtu0139       0.06888         1       139  
     140           rtu0140       0.29369         1       140  
     141           rtu0141       0.01139         1       141  
     142           rtu0142       0.00629         1       142  
     143           rtu0143       0.11200         1       143  
     144           rtu0144       0.05705         1       144  
     145           rtu0145       0.28871         1       145  
     146           rtu0146       0.40414         1       146  
     147           rtu0147       1.07929         1       147  
     148           rtu0148       0.03896         1       148  
     149           rtu0149       0.05146         1       149  
     150           rtu0150       0.89683         1       150  
     151           rtu0151       0.29814         1       151  
     152           rtu0152       0.21359         1       152  
     153           rtu0153       0.16048         1       153  
     154           rtu0154       0.33278         1       154  
     155           rtu0155       0.60059         1       155  
     156           rtu0156       0.00817         1       156  
     157           rtu0157       0.23252         1       157  
     158           rtu0158       0.24063         1       158  
     159           rtu0159       0.14364         1       159  
     160           rtu0160       0.10109         1       160  
     161           rtu0161       0.08058         1       161  
     162           rtu0162       0.62454         1       162  
     163           rtu0163       0.06131         1       163  
     164           rtu0164       0.10633         1       164  
     165           rtu0165       0.34686         1       165  
     166           rtu0166       0.08624         1       166  
     167           rtu0167       0.04647         1       167  
     168           rtu0168       0.04103         1       168  
     169           rtu0169       0.01051         1       169  
     170           rtu0170       0.01628         1       170  
     171           rtu0171       0.00633         1       171  
     172           rtu0172       0.02324         1       172  
     173           rtu0173       0.02325         1       173  
     174           rtu0174       0.02168         1       174  
     175           rtu0175       0.03960         1       175  
     176           rtu0176       0.09085         1       176  
     177           rtu0177       0.13421         1       177  
     178           rtu0178       0.01319         1       178  
     179           rtu0179       0.00771         1       179  
     180           rtu0180       0.02990         1       180  
     181           rtu0181       0.16063         1       181  
     182           rtu0182       0.04357         1       182  
     183           rtu0183       0.11128         1       183  
     184           rtu0184       0.00876         1       184  
     185           rtu0185       0.11070         1       185  
     186           rtu0186       0.28159         1       186  
     187           rtu0187       0.11143         1       187  
     188           rtu0188       0.21216         1       188  
     189           rtu0189       2.05048         1       189  
     190           rtu0190       0.19395         1       190  
     191           rtu0191       0.36433         1       191  
     192           rtu0192       0.00585         1       192  
     193           rtu0193       0.36377         1       193  
     194           rtu0194       0.07388         1       194  
     195           rtu0195       0.15916         1       195  
     196           rtu0196       0.23476         1       196  
     197           rtu0197       0.23386         1       197  
     198           rtu0198       0.04127         1       198  
     199           rtu0199       0.00885         1       199  
     200           rtu0200       0.00869         1       200  
     201           rtu0201       0.01114         1       201  
     202           rtu0202       0.05201         1       202  
     203           rtu0203       0.01477         1       203  
     204           rtu0204       0.19285         1       204  
     205           rtu0205       0.01065         1       205  
     206           rtu0206       0.08834         1       206  
     207           rtu0207       0.18315         1       207  
     208           rtu0208       0.00679         1       208  
     209           rtu0209       0.01023         1       209  
     210           rtu0210       0.00540         1       210  
     211           rtu0211       0.00937         1       211  
     212           rtu0212       0.02063         1       212  
     213           rtu0213       0.12907         1       213  
     214           rtu0214       0.21560         1       214  
     215           rtu0215       0.10846         1       215  
     216           rtu0216       0.04014         1       216  
     217           rtu0217       0.02238         1       217  
     218           rtu0218       0.01797         1       218  
     219           rtu0219       0.02227         1       219  
     220           rtu0220       0.16351         1       220  
     221           rtu0221       0.04203         1       221  
     222           rtu0222       0.01392         1       222  
     223           rtu0223       0.07425         1       223  
     224           rtu0224       0.09481         1       224  
     225           rtu0225       0.47293         1       225  
     226           rtu0226       0.12331         1       226  
     227           rtu0227       0.37831         1       227  
     228           rtu0228       0.07298         1       228  
     229           rtu0229       0.35377         1       229  
     230           rtu0230       0.05638         1       230  
     231           rtu0231       0.08199         1       231  
     232           rtu0232       0.01211         1       232  
     233           rtu0233       0.75350         1       233  
     234           rtu0234       0.18360         1       234  
     235           rtu0235       0.02871         1       235  
     236           rtu0236       1.22886         1       236  
     237           rtu0237       0.00648         1       237  
     238           rtu0238       0.02455         1       238  
     239           rtu0239       0.12575         1       239  
     240           rtu0240       0.06768         1       240  
     241           rtu0241       0.00622         1       241  
     242           rtu0242       0.21375         1       242  
     243           rtu0243       0.17735         1       243  
     244           rtu0244       0.00979         1       244  
     245           rtu0245       0.03772         1       245  
     246           rtu0246       0.01393         1       246  
     247           rtu0247       0.79473         1       247  
     248           rtu0248       0.59886         1       248  
     249           rtu0249       0.02032         1       249  
     250           rtu0250       0.19705         1       250  
     251           rtu0251       0.23734         1       251  
     252           rtu0252       0.00892         1       252  
     253           rtu0253       0.01040         1       253  
     254           rtu0254       0.00670         1       254  
     255           rtu0255       0.00554         1       255  
     256           rtu0256       0.00628         1       256  
     257           rtu0257       0.00956         1       257  
     258           rtu0258       0.13036         1       258  
     259           rtu0259       0.57802         1       259  
     260           rtu0260       0.03367         1       260  
     261           rtu0261       0.17528         1       261  
     262           rtu0262       0.91102         1       262  
     263           rtu0263       0.03339         1       263  
     264           rtu0264       0.17535         1       264  
     265           rtu0265       2.18087         1       265  
     266           rtu0266       0.12920         1       266  
     267           rtu0267       0.25878         1       267  
     268           rtu0268       0.05618         1       268  
     269           rtu0269       0.37979         1       269  
     270           rtu0270       0.05325         1       270  
     271           rtu0271       0.00578         1       271  
     272           rtu0272       0.01648         1       272  
     273           rtu0273       0.08773         1       273  
     274           rtu0274       1.73401         1       274  
     275           rtu0275       0.18437         1       275  
     276           rtu0276       0.13113         1       276  
     277           rtu0277       0.09095         1       277  
     278           rtu0278       0.47596         1       278  
     279           rtu0279       0.04644         1       279  
     280           rtu0280       0.15882         1       280  
     281           rtu0281       0.03481         1       281  
     282           rtu0282       0.21580         1       282  
     283           rtu0283       0.00565         1       283  
     284           rtu0284       0.23399         1       284  
     285           rtu0285       0.19194         1       285  
     286           rtu0286       0.06312         1       286  
     287           rtu0287       0.10803         1       287  
     288           rtu0288       0.05777         1       288  
     289           rtu0289       0.53295         1       289  
     290           rtu0290       0.99449         1       290  
     291           rtu0291       1.51412         1       291  
     292           rtu0292       0.09450         1       292  
     293           rtu0293       0.02856         1       293  
     294           rtu0294       0.05479         1       294  
     295           rtu0295       0.06794         1       295  
     296           rtu0296       0.08706         1       296  
     297           rtu0297       0.02211         1       297  
     298           rtu0298       0.03355         1       298  
     299           rtu0299       0.25257         1       299  
     300           rtu0300       0.69671         1       300  
     301           rtu0301       0.67442         1       301  
     302           rtu0302       0.18921         1       302  
     303           rtu0303       0.09590         1       303  
     304           rtu0304       0.01291         1       304  
     305           rtu0305       0.01324         1       305  
     306           rtu0306       0.01622         1       306  
     307           rtu0307       0.19336         1       307  
     308           rtu0308       0.07901         1       308  
     309           rtu0309       0.07873         1       309  
     310           rtu0310       0.37725         1       310  
     311           rtu0311       0.01929         1       311  
     312           rtu0312       0.06947         1       312  
     313           rtu0313       0.28869         1       313  
     314           rtu0314       0.03882         1       314  
     315           rtu0315       0.22249         1       315  
     316           rtu0316       0.13637         1       316  
     317           rtu0317       0.09553         1       317  
     318           rtu0318       0.44075         1       318  
     319           rtu0319       1.94044         1       319  
     320           rtu0320       0.05309         1       320  
     321           rtu0321       0.05455         1       321  
     322           rtu0322       0.39341         1       322  
     323           rtu0323       0.00811         1       323  
     324           rtu0324       0.01035         1       324  
     325           rtu0325       0.00638         1       325  
     326           rtu0326       0.76233         1       326  
     327           rtu0327       0.02741         1       327  
     328           rtu0328       0.24085         1       328  
     329           rtu0329       0.13575         1       329  
     330           rtu0330       0.00601         1       330  
     331           rtu0331       0.10818         1       331  
     332           rtu0332       0.53115         1       332  
     333           rtu0333       0.12140         1       333  
     334           rtu0334       0.59887         1       334  
     335           rtu0335       0.12400         1       335  
     336           rtu0336       0.20817         1       336  
     337           rtu0337       0.31237         1       337  
     338           rtu0338       0.14411         1       338  
     339           rtu0339       0.23964         1       339  
     340           rtu0340       0.56712         1       340  
     341           rtu0341       0.58724         1       341  
     342           rtu0342       0.24326         1       342  
     343           rtu0343       0.09800         1       343  
     344           rtu0344       0.02102         1       344  
     345           rtu0345       0.48148         1       345  
     346           rtu0346       0.16173         1       346  
     347           rtu0347       0.13936         1       347  
     348           rtu0348       0.18293         1       348  
     349           rtu0349       0.01345         1       349  
     350           rtu0350       0.06666         1       350  
     351           rtu0351       0.07409         1       351  
     352           rtu0352       0.19100         1       352  
     353           rtu0353       0.03031         1       353  
     354           rtu0354       0.40449         1       354  
     355           rtu0355       0.22074         1       355  
     356           rtu0356       2.41885         1       356  
     357           rtu0357       0.28556         1       357  
     358           rtu0358       0.13056         1       358  
     359           rtu0359       0.34835         1       359  
     360           rtu0360       0.29857         1       360  
     361           rtu0361       0.01437         1       361  
     362           rtu0362       0.22395         1       362  
     363           rtu0363       0.15615         1       363  
     364           rtu0364       0.05428         1       364  
     365           rtu0365       0.01545         1       365  
     366           rtu0366       0.23356         1       366  
     367           rtu0367       0.05935         1       367  
     368           rtu0368       0.02927         1       368  
     369           rtu0369       0.02956         1       369  
     370           rtu0370       0.22016         1       370  
     371           rtu0371       0.87552         1       371  
     372           rtu0372       0.01214         1       372  
     373           rtu0373       0.21049         1       373  
     374           rtu0374       0.10042         1       374  
     375           rtu0375       0.01050         1       375  
     376           rtu0376       0.00795         1       376  
     377           rtu0377       0.06442         1       377  
     378           rtu0378       0.45801         1       378  
     379           rtu0379       0.25483         1       379  
     380           rtu0380       0.10905         1       380  
     381           rtu0381       0.16533         1       381  
     382           rtu0382       0.07367         1       382  
     383           rtu0383       0.14265         1       383  
     384           rtu0384       0.08278         1       384  
     385           rtu0385       0.00664         1       385  
     386           rtu0386       0.00542         1       386  
     387           rtu0387       0.09127         1       387  
     388           rtu0388       0.01494         1       388  
     389           rtu0389       0.25876         1       389  
     390           rtu0390       0.02131         1       390  
     391           rtu0391       0.01269         1       391  
     392           rtu0392       0.07231         1       392  
     393           rtu0393       0.01100         1       393  
     394           rtu0394       0.05699         1       394  
     395           rtu0395       0.03172         1       395  
     396           rtu0396       0.30213         1       396  
     397           rtu0397       0.16946         1       397  
     398           rtu0398       0.04548         1       398  
     399           rtu0399       0.01058         1       399  
     400           rtu0400       0.39386         1       400  
     401           rtu0401       0.06924         1       401  
     402           rtu0402       0.07471         1       402  
     403           rtu0403       0.11792         1       403  
     404           rtu0404       0.12477         1       404  
     405           rtu0405       0.04805         1       405  
     406           rtu0406       0.01462         1       406  
     407           rtu0407       0.20061         1       407  
     408           rtu0408       0.10756         1       408  
     409           rtu0409       0.25927         1       409  
     410           rtu0410       0.23296         1       410  
     411           rtu0411       0.01392         1       411  
     412           rtu0412       0.00901         1       412  
     413           rtu0413       0.02905         1       413  
     414           rtu0414       0.00904         1       414  
     415           rtu0415       0.00624         1       415  
     416           rtu0416       0.02603         1       416  
     417           rtu0417       0.00626         1       417  
     418           rtu0418       0.01028         1       418  
     419           rtu0419       0.14681         1       419  
     420           rtu0420       0.08340         1       420  
     421           rtu0421       0.16821         1       421  
     422           rtu0422       0.01704         1       422  
     423           rtu0423       0.17598         1       423  
     424           rtu0424       0.46984         1       424  
     425           rtu0425       0.16109         1       425  
     426           rtu0426       0.31240         1       426  
     427           rtu0427       0.24933         1       427  
     428           rtu0428       1.20440         1       428  
     429           rtu0429       0.56795         1       429  
     430           rtu0430       2.69879         1       430  
     431           rtu0431       0.00701         1       431  
     432           rtu0432       0.02782         1       432  
     433           rtu0433       0.51079         1       433  
     434           rtu0434       0.02159         1       434  
     435           rtu0435       0.13239         1       435  
     436           rtu0436       0.01527         1       436  
     437           rtu0437       0.34652         1       437  
     438           rtu0438       0.09785         1       438  
     439           rtu0439       0.31681         1       439  
     440           rtu0440       0.08038         1       440  
     441           rtu0441       0.04464         1       441  
     442           rtu0442       0.38732         1       442  
     443           rtu0443       0.21602         1       443  
     444           rtu0444       0.33756         1       444  
     445           rtu0445       0.17158         1       445  
     446           rtu0446       0.34504         1       446  
     447           rtu0447       0.04789         1       447  
     448           rtu0448       0.00985         1       448  
     449           rtu0449       0.01958         1       449  
     450           rtu0450       0.00824         1       450  
     451           rtu0451       0.00749         1       451  
     452           rtu0452       0.02265         1       452  
     453           rtu0453       0.18673         1       453  
     454           rtu0454       0.33648         1       454  
     455           rtu0455       0.40910         1       455  
     456           rtu0456       0.17337         1       456  
     457           rtu0457       0.29469         1       457  
     458           rtu0458       0.34262         1       458  
     459           rtu0459       0.17518         1       459  
     460           rtu0460       0.03183         1       460  
     461           rtu0461       0.77903         1       461  
     462           rtu0462       0.02909         1       462  
     463           rtu0463       0.07847         1       463  
     464           rtu0464       0.07659         1       464  
     465           rtu0465       0.13991         1       465  
     466           rtu0466       1.51488         1       466  
     467           rtu0467       0.45770         1       467  
     468           rtu0468       0.18851         1       468  
     469           rtu0469       0.01108         1       469  
     470           rtu0470       0.01119         1       470  
     471           rtu0471       0.07303         1       471  
     472           rtu0472       0.07806         1       472  
     473           rtu0473       0.09156         1       473  