ls_unit.ele: written by SWAT+ editor v2.1.0 on 2023-09-11 10:26 for SWAT+ rev.60.5.4
      id  name                   obj_typ  obj_typ_no      bsn_frac      sub_frac      reg_frac  
       1  hru0001                    hru           1     9.5546E-3       1.00000       0.00000  
       2  hru0002                    hru           2     4.2774E-4       1.00000       0.00000  
       3  hru0003                    hru           3     1.3986E-4       1.00000       0.00000  
       4  hru0004                    hru           4     6.9742E-4       1.00000       0.00000  
       5  hru0005                    hru           5     2.3759E-4       1.00000       0.00000  
       6  hru0006                    hru           6     3.9656E-4       1.00000       0.00000  
       7  hru0007                    hru           7     1.4709E-4       1.00000       0.00000  
       8  hru0008                    hru           8     4.0328E-5       1.00000       0.00000  
       9  hru0009                    hru           9     3.3490E-3       1.00000       0.00000  
      10  hru0010                    hru          10     7.4285E-3       1.00000       0.00000  
      11  hru0011                    hru          11     3.4035E-5       1.00000       0.00000  
      12  hru0012                    hru          12     1.8806E-5       1.00000       0.00000  
      13  hru0013                    hru          13     4.9924E-6       1.00000       0.00000  
      14  hru0014                    hru          14     1.1018E-6       1.00000       0.00000  
      15  hru0015                    hru          15     4.6464E-6       1.00000       0.00000  
      16  hru0016                    hru          16     4.5853E-5       1.00000       0.00000  
      17  hru0017                    hru          17     8.5359E-6       1.00000       0.00000  
      18  hru0018                    hru          18     8.1678E-6       1.00000       0.00000  
      19  hru0019                    hru          19     1.3656E-3       1.00000       0.00000  
      20  hru0020                    hru          20     2.4676E-5       1.00000       0.00000  
      21  hru0021                    hru          21     3.2516E-5       1.00000       0.00000  
      22  hru0022                    hru          22     6.9551E-5       1.00000       0.00000  
      23  hru0023                    hru          23     1.8021E-5       1.00000       0.00000  
      24  hru0024                    hru          24     9.4698E-6       1.00000       0.00000  
      25  hru0025                    hru          25     1.6061E-5       1.00000       0.00000  
      26  hru0026                    hru          26     5.5904E-5       1.00000       0.00000  
      27  hru0027                    hru          27     1.2602E-6       1.00000       0.00000  
      28  hru0028                    hru          28     6.1459E-7       1.00000       0.00000  
      29  hru0029                    hru          29     5.2296E-7       1.00000       0.00000  
      30  hru0030                    hru          30     8.3293E-7       1.00000       0.00000  
      31  hru0031                    hru          31     2.0359E-5       1.00000       0.00000  
      32  hru0032                    hru          32     1.5776E-6       1.00000       0.00000  
      33  hru0033                    hru          33     5.1074E-7       1.00000       0.00000  
      34  hru0034                    hru          34     7.0148E-7       1.00000       0.00000  
      35  hru0035                    hru          35     2.3124E-6       1.00000       0.00000  
      36  hru0036                    hru          36     1.0219E-5       1.00000       0.00000  
      37  hru0037                    hru          37     1.2618E-6       1.00000       0.00000  
      38  hru0038                    hru          38     9.8314E-7       1.00000       0.00000  
      39  hru0039                    hru          39     3.1487E-6       1.00000       0.00000  
      40  hru0040                    hru          40     1.4657E-6       1.00000       0.00000  
      41  hru0041                    hru          41     8.2217E-6       1.00000       0.00000  
      42  hru0042                    hru          42     1.2091E-6       1.00000       0.00000  
      43  hru0043                    hru          43     1.7953E-6       1.00000       0.00000  
      44  hru0044                    hru          44     1.4228E-6       1.00000       0.00000  
      45  hru0045                    hru          45     7.3231E-6       1.00000       0.00000  
      46  hru0046                    hru          46     7.0867E-6       1.00000       0.00000  
      47  hru0047                    hru          47     2.0227E-6       1.00000       0.00000  
      48  hru0048                    hru          48     1.7055E-6       1.00000       0.00000  
      49  hru0049                    hru          49     5.6540E-6       1.00000       0.00000  
      50  hru0050                    hru          50     5.7425E-6       1.00000       0.00000  
      51  hru0051                    hru          51     2.4735E-5       1.00000       0.00000  
      52  hru0052                    hru          52     6.1631E-6       1.00000       0.00000  
      53  hru0053                    hru          53     4.9586E-5       1.00000       0.00000  
      54  hru0054                    hru          54     1.3601E-5       1.00000       0.00000  
      55  hru0055                    hru          55     2.6787E-5       1.00000       0.00000  
      56  hru0056                    hru          56     6.8483E-5       1.00000       0.00000  
      57  hru0057                    hru          57     1.9994E-5       1.00000       0.00000  
      58  hru0058                    hru          58     9.4667E-6       1.00000       0.00000  
      59  hru0059                    hru          59     2.4544E-6       1.00000       0.00000  
      60  hru0060                    hru          60     1.0264E-4       1.00000       0.00000  
      61  hru0061                    hru          61     1.5187E-5       1.00000       0.00000  
      62  hru0062                    hru          62     1.0825E-5       1.00000       0.00000  
      63  hru0063                    hru          63     3.4255E-5       1.00000       0.00000  
      64  hru0064                    hru          64     1.9740E-5       1.00000       0.00000  
      65  hru0065                    hru          65     2.9216E-5       1.00000       0.00000  
      66  hru0066                    hru          66     4.7067E-5       1.00000       0.00000  
      67  hru0067                    hru          67     2.7707E-5       1.00000       0.00000  
      68  hru0068                    hru          68     1.0374E-4       1.00000       0.00000  
      69  hru0069                    hru          69     3.4461E-6       1.00000       0.00000  
      70  hru0070                    hru          70     2.6242E-5       1.00000       0.00000  
      71  hru0071                    hru          71     6.9145E-6       1.00000       0.00000  
      72  hru0072                    hru          72     3.9718E-5       1.00000       0.00000  
      73  hru0073                    hru          73     8.5761E-7       1.00000       0.00000  
      74  hru0074                    hru          74     4.0606E-6       1.00000       0.00000  
      75  hru0075                    hru          75     4.6269E-7       1.00000       0.00000  
      76  hru0076                    hru          76     3.3425E-5       1.00000       0.00000  
      77  hru0077                    hru          77     6.6053E-7       1.00000       0.00000  
      78  hru0078                    hru          78     1.4848E-4       1.00000       0.00000  
      79  hru0079                    hru          79     6.8270E-6       1.00000       0.00000  
      80  hru0080                    hru          80     9.2991E-7       1.00000       0.00000  
      81  hru0081                    hru          81     2.2588E-5       1.00000       0.00000  
      82  hru0082                    hru          82     9.9949E-6       1.00000       0.00000  
      83  hru0083                    hru          83     2.0188E-6       1.00000       0.00000  
      84  hru0084                    hru          84     3.3085E-5       1.00000       0.00000  
      85  hru0085                    hru          85     1.6642E-6       1.00000       0.00000  
      86  hru0086                    hru          86     2.0979E-5       1.00000       0.00000  
      87  hru0087                    hru          87     3.7654E-5       1.00000       0.00000  
      88  hru0088                    hru          88     3.0594E-6       1.00000       0.00000  
      89  hru0089                    hru          89     1.6477E-6       1.00000       0.00000  
      90  hru0090                    hru          90     8.7685E-7       1.00000       0.00000  
      91  hru0091                    hru          91     1.6567E-6       1.00000       0.00000  
      92  hru0092                    hru          92     1.9454E-6       1.00000       0.00000  
      93  hru0093                    hru          93     1.3364E-6       1.00000       0.00000  
      94  hru0094                    hru          94     1.4324E-6       1.00000       0.00000  
      95  hru0095                    hru          95     1.1893E-6       1.00000       0.00000  
      96  hru0096                    hru          96     8.7414E-7       1.00000       0.00000  
      97  hru0097                    hru          97     4.7698E-7       1.00000       0.00000  
      98  hru0098                    hru          98     1.1217E-5       1.00000       0.00000  
      99  hru0099                    hru          99     5.0046E-7       1.00000       0.00000  
     100  hru0100                    hru         100     2.8052E-6       1.00000       0.00000  
     101  hru0101                    hru         101     2.3031E-6       1.00000       0.00000  
     102  hru0102                    hru         102     3.5503E-6       1.00000       0.00000  
     103  hru0103                    hru         103     2.3256E-6       1.00000       0.00000  
     104  hru0104                    hru         104     2.7882E-6       1.00000       0.00000  
     105  hru0105                    hru         105     1.0468E-6       1.00000       0.00000  
     106  hru0106                    hru         106     5.5028E-7       1.00000       0.00000  
     107  hru0107                    hru         107     1.8604E-6       1.00000       0.00000  
     108  hru0108                    hru         108     9.2494E-6       1.00000       0.00000  
     109  hru0109                    hru         109     3.7858E-6       1.00000       0.00000  
     110  hru0110                    hru         110     3.3576E-6       1.00000       0.00000  
     111  hru0111                    hru         111     5.5174E-7       1.00000       0.00000  
     112  hru0112                    hru         112     5.8761E-7       1.00000       0.00000  
     113  hru0113                    hru         113     2.1154E-6       1.00000       0.00000  
     114  hru0114                    hru         114     7.1112E-7       1.00000       0.00000  
     115  hru0115                    hru         115     5.4913E-7       1.00000       0.00000  
     116  hru0116                    hru         116     1.0575E-5       1.00000       0.00000  
     117  hru0117                    hru         117     1.6718E-6       1.00000       0.00000  
     118  hru0118                    hru         118     1.5049E-5       1.00000       0.00000  
     119  hru0119                    hru         119     1.6579E-5       1.00000       0.00000  
     120  hru0120                    hru         120     4.7859E-5       1.00000       0.00000  
     121  hru0121                    hru         121     7.7618E-7       1.00000       0.00000  
     122  hru0122                    hru         122     2.7045E-5       1.00000       0.00000  
     123  hru0123                    hru         123     6.4647E-7       1.00000       0.00000  
     124  hru0124                    hru         124     8.4823E-7       1.00000       0.00000  
     125  hru0125                    hru         125     1.0669E-6       1.00000       0.00000  
     126  hru0126                    hru         126     4.8883E-7       1.00000       0.00000  
     127  hru0127                    hru         127     5.5078E-7       1.00000       0.00000  
     128  hru0128                    hru         128     2.4052E-6       1.00000       0.00000  
     129  hru0129                    hru         129     3.5511E-6       1.00000       0.00000  
     130  hru0130                    hru         130     2.1860E-6       1.00000       0.00000  
     131  hru0131                    hru         131     7.9827E-7       1.00000       0.00000  
     132  hru0132                    hru         132     9.3935E-7       1.00000       0.00000  
     133  hru0133                    hru         133     1.1131E-5       1.00000       0.00000  
     134  hru0134                    hru         134     7.9617E-7       1.00000       0.00000  
     135  hru0135                    hru         135     1.1228E-6       1.00000       0.00000  
     136  hru0136                    hru         136     5.9428E-7       1.00000       0.00000  
     137  hru0137                    hru         137     2.3557E-6       1.00000       0.00000  
     138  hru0138                    hru         138     7.5561E-6       1.00000       0.00000  
     139  hru0139                    hru         139     5.9285E-6       1.00000       0.00000  
     140  hru0140                    hru         140     2.5279E-5       1.00000       0.00000  
     141  hru0141                    hru         141     9.8052E-7       1.00000       0.00000  
     142  hru0142                    hru         142     5.4139E-7       1.00000       0.00000  
     143  hru0143                    hru         143     9.6408E-6       1.00000       0.00000  
     144  hru0144                    hru         144     4.9106E-6       1.00000       0.00000  
     145  hru0145                    hru         145     2.4851E-5       1.00000       0.00000  
     146  hru0146                    hru         146     3.4786E-5       1.00000       0.00000  
     147  hru0147                    hru         147     9.2901E-5       1.00000       0.00000  
     148  hru0148                    hru         148     3.3533E-6       1.00000       0.00000  
     149  hru0149                    hru         149     4.4298E-6       1.00000       0.00000  
     150  hru0150                    hru         150     7.7195E-5       1.00000       0.00000  
     151  hru0151                    hru         151     2.5662E-5       1.00000       0.00000  
     152  hru0152                    hru         152     1.8385E-5       1.00000       0.00000  
     153  hru0153                    hru         153     1.3813E-5       1.00000       0.00000  
     154  hru0154                    hru         154     2.8644E-5       1.00000       0.00000  
     155  hru0155                    hru         155     5.1696E-5       1.00000       0.00000  
     156  hru0156                    hru         156     7.0282E-7       1.00000       0.00000  
     157  hru0157                    hru         157     2.0014E-5       1.00000       0.00000  
     158  hru0158                    hru         158     2.0712E-5       1.00000       0.00000  
     159  hru0159                    hru         159     1.2364E-5       1.00000       0.00000  
     160  hru0160                    hru         160     8.7014E-6       1.00000       0.00000  
     161  hru0161                    hru         161     6.9361E-6       1.00000       0.00000  
     162  hru0162                    hru         162     5.3758E-5       1.00000       0.00000  
     163  hru0163                    hru         163     5.2776E-6       1.00000       0.00000  
     164  hru0164                    hru         164     9.1528E-6       1.00000       0.00000  
     165  hru0165                    hru         165     2.9856E-5       1.00000       0.00000  
     166  hru0166                    hru         166     7.4230E-6       1.00000       0.00000  
     167  hru0167                    hru         167     4.0000E-6       1.00000       0.00000  
     168  hru0168                    hru         168     3.5319E-6       1.00000       0.00000  
     169  hru0169                    hru         169     9.0477E-7       1.00000       0.00000  
     170  hru0170                    hru         170     1.4012E-6       1.00000       0.00000  
     171  hru0171                    hru         171     5.4462E-7       1.00000       0.00000  
     172  hru0172                    hru         172     2.0001E-6       1.00000       0.00000  
     173  hru0173                    hru         173     2.0010E-6       1.00000       0.00000  
     174  hru0174                    hru         174     1.8664E-6       1.00000       0.00000  
     175  hru0175                    hru         175     3.4084E-6       1.00000       0.00000  
     176  hru0176                    hru         176     7.8203E-6       1.00000       0.00000  
     177  hru0177                    hru         177     1.1552E-5       1.00000       0.00000  
     178  hru0178                    hru         178     1.1352E-6       1.00000       0.00000  
     179  hru0179                    hru         179     6.6331E-7       1.00000       0.00000  
     180  hru0180                    hru         180     2.5737E-6       1.00000       0.00000  
     181  hru0181                    hru         181     1.3826E-5       1.00000       0.00000  
     182  hru0182                    hru         182     3.7500E-6       1.00000       0.00000  
     183  hru0183                    hru         183     9.5782E-6       1.00000       0.00000  
     184  hru0184                    hru         184     7.5404E-7       1.00000       0.00000  
     185  hru0185                    hru         185     9.5288E-6       1.00000       0.00000  
     186  hru0186                    hru         186     2.4239E-5       1.00000       0.00000  
     187  hru0187                    hru         187     9.5913E-6       1.00000       0.00000  
     188  hru0188                    hru         188     1.8261E-5       1.00000       0.00000  
     189  hru0189                    hru         189     1.7650E-4       1.00000       0.00000  
     190  hru0190                    hru         190     1.6694E-5       1.00000       0.00000  
     191  hru0191                    hru         191     3.1360E-5       1.00000       0.00000  
     192  hru0192                    hru         192     5.0367E-7       1.00000       0.00000  
     193  hru0193                    hru         193     3.1311E-5       1.00000       0.00000  
     194  hru0194                    hru         194     6.3596E-6       1.00000       0.00000  
     195  hru0195                    hru         195     1.3700E-5       1.00000       0.00000  
     196  hru0196                    hru         196     2.0207E-5       1.00000       0.00000  
     197  hru0197                    hru         197     2.0130E-5       1.00000       0.00000  
     198  hru0198                    hru         198     3.5526E-6       1.00000       0.00000  
     199  hru0199                    hru         199     7.6198E-7       1.00000       0.00000  
     200  hru0200                    hru         200     7.4798E-7       1.00000       0.00000  
     201  hru0201                    hru         201     9.5846E-7       1.00000       0.00000  
     202  hru0202                    hru         202     4.4771E-6       1.00000       0.00000  
     203  hru0203                    hru         203     1.2715E-6       1.00000       0.00000  
     204  hru0204                    hru         204     1.6599E-5       1.00000       0.00000  
     205  hru0205                    hru         205     9.1635E-7       1.00000       0.00000  
     206  hru0206                    hru         206     7.6043E-6       1.00000       0.00000  
     207  hru0207                    hru         207     1.5765E-5       1.00000       0.00000  
     208  hru0208                    hru         208     5.8406E-7       1.00000       0.00000  
     209  hru0209                    hru         209     8.8022E-7       1.00000       0.00000  
     210  hru0210                    hru         210     4.6515E-7       1.00000       0.00000  
     211  hru0211                    hru         211     8.0682E-7       1.00000       0.00000  
     212  hru0212                    hru         212     1.7759E-6       1.00000       0.00000  
     213  hru0213                    hru         213     1.1110E-5       1.00000       0.00000  
     214  hru0214                    hru         214     1.8558E-5       1.00000       0.00000  
     215  hru0215                    hru         215     9.3357E-6       1.00000       0.00000  
     216  hru0216                    hru         216     3.4552E-6       1.00000       0.00000  
     217  hru0217                    hru         217     1.9260E-6       1.00000       0.00000  
     218  hru0218                    hru         218     1.5471E-6       1.00000       0.00000  
     219  hru0219                    hru         219     1.9168E-6       1.00000       0.00000  
     220  hru0220                    hru         220     1.4074E-5       1.00000       0.00000  
     221  hru0221                    hru         221     3.6174E-6       1.00000       0.00000  
     222  hru0222                    hru         222     1.1985E-6       1.00000       0.00000  
     223  hru0223                    hru         223     6.3915E-6       1.00000       0.00000  
     224  hru0224                    hru         224     8.1605E-6       1.00000       0.00000  
     225  hru0225                    hru         225     4.0708E-5       1.00000       0.00000  
     226  hru0226                    hru         226     1.0614E-5       1.00000       0.00000  
     227  hru0227                    hru         227     3.2564E-5       1.00000       0.00000  
     228  hru0228                    hru         228     6.2821E-6       1.00000       0.00000  
     229  hru0229                    hru         229     3.0451E-5       1.00000       0.00000  
     230  hru0230                    hru         230     4.8527E-6       1.00000       0.00000  
     231  hru0231                    hru         231     7.0578E-6       1.00000       0.00000  
     232  hru0232                    hru         232     1.0421E-6       1.00000       0.00000  
     233  hru0233                    hru         233     6.4858E-5       1.00000       0.00000  
     234  hru0234                    hru         234     1.5804E-5       1.00000       0.00000  
     235  hru0235                    hru         235     2.4709E-6       1.00000       0.00000  
     236  hru0236                    hru         236     1.0578E-4       1.00000       0.00000  
     237  hru0237                    hru         237     5.5809E-7       1.00000       0.00000  
     238  hru0238                    hru         238     2.1129E-6       1.00000       0.00000  
     239  hru0239                    hru         239     1.0824E-5       1.00000       0.00000  
     240  hru0240                    hru         240     5.8256E-6       1.00000       0.00000  
     241  hru0241                    hru         241     5.3516E-7       1.00000       0.00000  
     242  hru0242                    hru         242     1.8398E-5       1.00000       0.00000  
     243  hru0243                    hru         243     1.5265E-5       1.00000       0.00000  
     244  hru0244                    hru         244     8.4255E-7       1.00000       0.00000  
     245  hru0245                    hru         245     3.2466E-6       1.00000       0.00000  
     246  hru0246                    hru         246     1.1992E-6       1.00000       0.00000  
     247  hru0247                    hru         247     6.8407E-5       1.00000       0.00000  
     248  hru0248                    hru         248     5.1548E-5       1.00000       0.00000  
     249  hru0249                    hru         249     1.7490E-6       1.00000       0.00000  
     250  hru0250                    hru         250     1.6961E-5       1.00000       0.00000  
     251  hru0251                    hru         251     2.0429E-5       1.00000       0.00000  
     252  hru0252                    hru         252     7.6757E-7       1.00000       0.00000  
     253  hru0253                    hru         253     8.9483E-7       1.00000       0.00000  
     254  hru0254                    hru         254     5.7697E-7       1.00000       0.00000  
     255  hru0255                    hru         255     4.7691E-7       1.00000       0.00000  
     256  hru0256                    hru         256     5.4073E-7       1.00000       0.00000  
     257  hru0257                    hru         257     8.2289E-7       1.00000       0.00000  
     258  hru0258                    hru         258     1.1221E-5       1.00000       0.00000  
     259  hru0259                    hru         259     4.9754E-5       1.00000       0.00000  
     260  hru0260                    hru         260     2.8986E-6       1.00000       0.00000  
     261  hru0261                    hru         261     1.5088E-5       1.00000       0.00000  
     262  hru0262                    hru         262     7.8417E-5       1.00000       0.00000  
     263  hru0263                    hru         263     2.8744E-6       1.00000       0.00000  
     264  hru0264                    hru         264     1.5094E-5       1.00000       0.00000  
     265  hru0265                    hru         265     1.8772E-4       1.00000       0.00000  
     266  hru0266                    hru         266     1.1121E-5       1.00000       0.00000  
     267  hru0267                    hru         267     2.2274E-5       1.00000       0.00000  
     268  hru0268                    hru         268     4.8360E-6       1.00000       0.00000  
     269  hru0269                    hru         269     3.2691E-5       1.00000       0.00000  
     270  hru0270                    hru         270     4.5832E-6       1.00000       0.00000  
     271  hru0271                    hru         271     4.9719E-7       1.00000       0.00000  
     272  hru0272                    hru         272     1.4185E-6       1.00000       0.00000  
     273  hru0273                    hru         273     7.5514E-6       1.00000       0.00000  
     274  hru0274                    hru         274     1.4926E-4       1.00000       0.00000  
     275  hru0275                    hru         275     1.5870E-5       1.00000       0.00000  
     276  hru0276                    hru         276     1.1287E-5       1.00000       0.00000  
     277  hru0277                    hru         277     7.8286E-6       1.00000       0.00000  
     278  hru0278                    hru         278     4.0969E-5       1.00000       0.00000  
     279  hru0279                    hru         279     3.9971E-6       1.00000       0.00000  
     280  hru0280                    hru         280     1.3670E-5       1.00000       0.00000  
     281  hru0281                    hru         281     2.9959E-6       1.00000       0.00000  
     282  hru0282                    hru         282     1.8575E-5       1.00000       0.00000  
     283  hru0283                    hru         283     4.8654E-7       1.00000       0.00000  
     284  hru0284                    hru         284     2.0141E-5       1.00000       0.00000  
     285  hru0285                    hru         285     1.6522E-5       1.00000       0.00000  
     286  hru0286                    hru         286     5.4335E-6       1.00000       0.00000  
     287  hru0287                    hru         287     9.2984E-6       1.00000       0.00000  
     288  hru0288                    hru         288     4.9725E-6       1.00000       0.00000  
     289  hru0289                    hru         289     4.5874E-5       1.00000       0.00000  
     290  hru0290                    hru         290     8.5601E-5       1.00000       0.00000  
     291  hru0291                    hru         291     1.3033E-4       1.00000       0.00000  
     292  hru0292                    hru         292     8.1339E-6       1.00000       0.00000  
     293  hru0293                    hru         293     2.4585E-6       1.00000       0.00000  
     294  hru0294                    hru         294     4.7160E-6       1.00000       0.00000  
     295  hru0295                    hru         295     5.8483E-6       1.00000       0.00000  
     296  hru0296                    hru         296     7.4937E-6       1.00000       0.00000  
     297  hru0297                    hru         297     1.9030E-6       1.00000       0.00000  
     298  hru0298                    hru         298     2.8880E-6       1.00000       0.00000  
     299  hru0299                    hru         299     2.1740E-5       1.00000       0.00000  
     300  hru0300                    hru         300     5.9970E-5       1.00000       0.00000  
     301  hru0301                    hru         301     5.8051E-5       1.00000       0.00000  
     302  hru0302                    hru         302     1.6286E-5       1.00000       0.00000  
     303  hru0303                    hru         303     8.2550E-6       1.00000       0.00000  
     304  hru0304                    hru         304     1.1109E-6       1.00000       0.00000  
     305  hru0305                    hru         305     1.1393E-6       1.00000       0.00000  
     306  hru0306                    hru         306     1.3958E-6       1.00000       0.00000  
     307  hru0307                    hru         307     1.6643E-5       1.00000       0.00000  