nutrients.sol: written by SWAT+ editor v2.1.0 on 2023-09-07 14:03 for SWAT+ rev.60.5.4, edited manually on 2023-09-09 09:48:30.607333
name                         exp_co                lab_p           nitrate        fr_hum_act           hum_c_n           hum_c_p            inorgp        watersol_p             h3a_p         mehlich_p     bray_strong_p       description
soilnut0001                       5e-04             30.56                 7              0.02                10                80                 0                 0                 0                 0                 0                  
soilnut0002                       5e-04             62.91                 7              0.02                10                80                 0                 0                 0                 0                 0                  
soilnut0003                       5e-04             64.49                 7              0.02                10                80                 0                 0                 0                 0                 0                  
soilnut0004                       5e-04             45.14                 7              0.02                10                80                 0                 0                 0                 0                 0                  
soilnut0005                       5e-04             59.79                 7              0.02                10                80                 0                 0                 0                 0                 0                  
soilnut0006                       5e-04             60.04                 7              0.02                10                80                 0                 0                 0                 0                 0                  
soilnut0007                       5e-04                64                 7              0.02                10                80                 0                 0                 0                 0                 0                  
soilnut0008                       5e-04             59.79                 7              0.02                10                80                 0                 0                 0                 0                 0                  
soilnut0009                       5e-04             30.56                 7              0.02                10                80                 0                 0                 0                 0                 0                  
soilnut0010                       5e-04             30.56                 7              0.02                10                80                 0                 0                 0                 0                 0                  
soilnut0011                       5e-04             60.19                 7              0.02                10                80                 0                 0                 0                 0                 0                  
soilnut0012                       5e-04             62.27                 7              0.02                10                80                 0                 0                 0                 0                 0                  
soilnut0013                       5e-04             59.79                 7              0.02                10                80                 0                 0                 0                 0                 0                  
soilnut0014                       5e-04             60.77                 7              0.02                10                80                 0                 0                 0                 0                 0                  
soilnut0015                       5e-04             59.79                 7              0.02                10                80                 0                 0                 0                 0                 0                  
soilnut0016                       5e-04             53.51                 7              0.02                10                80                 0                 0                 0                 0                 0                  
soilnut0017                       5e-04             45.11                 7              0.02                10                80                 0                 0                 0                 0                 0                  
soilnut0018                       5e-04             59.79                 7              0.02                10                80                 0                 0                 0                 0                 0                  
soilnut0019                       5e-04             31.76                 7              0.02                10                80                 0                 0                 0                 0                 0                  
soilnut0020                       5e-04             59.79                 7              0.02                10                80                 0                 0                 0                 0                 0                  
soilnut0021                       5e-04             59.82                 7              0.02                10                80                 0                 0                 0                 0                 0                  
soilnut0022                       5e-04             47.51                 7              0.02                10                80                 0                 0                 0                 0                 0                  
soilnut0023                       5e-04             59.79                 7              0.02                10                80                 0                 0                 0                 0                 0                  
soilnut0024                       5e-04              62.4                 7              0.02                10                80                 0                 0                 0                 0                 0                  
soilnut0025                       5e-04             62.94                 7              0.02                10                80                 0                 0                 0                 0                 0                  
soilnut0026                       5e-04             44.81                 7              0.02                10                80                 0                 0                 0                 0                 0                  
soilnut0027                       5e-04             11.73                 7              0.02                10                80                 0                 0                 0                 0                 0                  
soilnut0028                       5e-04              12.5                 7              0.02                10                80                 0                 0                 0                 0                 0                  
soilnut0029                       5e-04             64.49                 7              0.02                10                80                 0                 0                 0                 0                 0                  
soilnut0030                       5e-04             64.49                 7              0.02                10                80                 0                 0                 0                 0                 0                  
soilnut0031                       5e-04             59.79                 7              0.02                10                80                 0                 0                 0                 0                 0                  
soilnut0032                       5e-04             64.49                 7              0.02                10                80                 0                 0                 0                 0                 0                  
soilnut0033                       5e-04             64.49                 7              0.02                10                80                 0                 0                 0                 0                 0                  
soilnut0034                       5e-04             64.49                 7              0.02                10                80                 0                 0                 0                 0                 0                  
soilnut0035                       5e-04             36.23                 7              0.02                10                80                 0                 0                 0                 0                 0                  
soilnut0036                       5e-04             46.44                 7              0.02                10                80                 0                 0                 0                 0                 0                  
soilnut0037                       5e-04             64.49                 7              0.02                10                80                 0                 0                 0                 0                 0                  
soilnut0038                       5e-04             64.49                 7              0.02                10                80                 0                 0                 0                 0                 0                  
soilnut0039                       5e-04             64.49                 7              0.02                10                80                 0                 0                 0                 0                 0                  
soilnut0040                       5e-04             30.56                 7              0.02                10                80                 0                 0                 0                 0                 0                  
soilnut0041                       5e-04             30.56                 7              0.02                10                80                 0                 0                 0                 0                 0                  
soilnut0042                       5e-04             30.56                 7              0.02                10                80                 0                 0                 0                 0                 0                  
soilnut0043                       5e-04             30.56                 7              0.02                10                80                 0                 0                 0                 0                 0                  
soilnut0044                       5e-04             30.56                 7              0.02                10                80                 0                 0                 0                 0                 0                  
soilnut0045                       5e-04             30.56                 7              0.02                10                80                 0                 0                 0                 0                 0                  
soilnut0046                       5e-04             30.56                 7              0.02                10                80                 0                 0                 0                 0                 0                  
soilnut0047                       5e-04             30.56                 7              0.02                10                80                 0                 0                 0                 0                 0                  
soilnut0048                       5e-04             30.56                 7              0.02                10                80                 0                 0                 0                 0                 0                  
soilnut0049                       5e-04             30.56                 7              0.02                10                80                 0                 0                 0                 0                 0                  
soilnut0050                       5e-04             30.56                 7              0.02                10                80                 0                 0                 0                 0                 0                  
soilnut0051                       5e-04             30.56                 7              0.02                10                80                 0                 0                 0                 0                 0                  
soilnut0052                       5e-04             30.56                 7              0.02                10                80                 0                 0                 0                 0                 0                  
soilnut0053                       5e-04             30.56                 7              0.02                10                80                 0                 0                 0                 0                 0                  
soilnut0054                       5e-04             59.84                 7              0.02                10                80                 0                 0                 0                 0                 0                  
soilnut0055                       5e-04             59.79                 7              0.02                10                80                 0                 0                 0                 0                 0                  
soilnut0056                       5e-04             64.36                 7              0.02                10                80                 0                 0                 0                 0                 0                  
soilnut0057                       5e-04             64.49                 7              0.02                10                80                 0                 0                 0                 0                 0                  
soilnut0058                       5e-04             64.49                 7              0.02                10                80                 0                 0                 0                 0                 0                  
soilnut0059                       5e-04             64.49                 7              0.02                10                80                 0                 0                 0                 0                 0                  
soilnut0060                       5e-04             64.49                 7              0.02                10                80                 0                 0                 0                 0                 0                  
soilnut0061                       5e-04              53.6                 7              0.02                10                80                 0                 0                 0                 0                 0                  
soilnut0062                       5e-04             64.49                 7              0.02                10                80                 0                 0                 0                 0                 0                  
soilnut0063                       5e-04             64.49                 7              0.02                10                80                 0                 0                 0                 0                 0                  
soilnut0064                       5e-04             58.41                 7              0.02                10                80                 0                 0                 0                 0                 0                  
soilnut0065                       5e-04             33.75                 7              0.02                10                80                 0                 0                 0                 0                 0                  
soilnut0066                       5e-04             32.66                 7              0.02                10                80                 0                 0                 0                 0                 0                  
soilnut0067                       5e-04             64.49                 7              0.02                10                80                 0                 0                 0                 0                 0                  
soilnut0068                       5e-04             64.49                 7              0.02                10                80                 0                 0                 0                 0                 0                  
soilnut0069                       5e-04             64.49                 7              0.02                10                80                 0                 0                 0                 0                 0                  
soilnut0070                       5e-04             64.49                 7              0.02                10                80                 0                 0                 0                 0                 0                  
soilnut0071                       5e-04             39.89                 7              0.02                10                80                 0                 0                 0                 0                 0                  
soilnut0072                       5e-04             62.11                 7              0.02                10                80                 0                 0                 0                 0                 0                  
soilnut0073                       5e-04             64.49                 7              0.02                10                80                 0                 0                 0                 0                 0                  
soilnut0074                       5e-04             59.79                 7              0.02                10                80                 0                 0                 0                 0                 0                  
soilnut0075                       5e-04             64.49                 7              0.02                10                80                 0                 0                 0                 0                 0                  
soilnut0076                       5e-04             64.49                 7              0.02                10                80                 0                 0                 0                 0                 0                  
soilnut0077                       5e-04             64.49                 7              0.02                10                80                 0                 0                 0                 0                 0                  
soilnut0078                       5e-04             62.76                 7              0.02                10                80                 0                 0                 0                 0                 0                  
soilnut0079                       5e-04             64.49                 7              0.02                10                80                 0                 0                 0                 0                 0                  
soilnut0080                       5e-04             30.56                 7              0.02                10                80                 0                 0                 0                 0                 0                  
soilnut0081                       5e-04             64.49                 7              0.02                10                80                 0                 0                 0                 0                 0                  
soilnut0082                       5e-04             30.56                 7              0.02                10                80                 0                 0                 0                 0                 0                  
soilnut0083                       5e-04             30.56                 7              0.02                10                80                 0                 0                 0                 0                 0                  
soilnut0084                       5e-04             60.25                 7              0.02                10                80                 0                 0                 0                 0                 0                  
soilnut0085                       5e-04             59.79                 7              0.02                10                80                 0                 0                 0                 0                 0                  
soilnut0086                       5e-04             59.79                 7              0.02                10                80                 0                 0                 0                 0                 0                  
soilnut0087                       5e-04             59.79                 7              0.02                10                80                 0                 0                 0                 0                 0                  
soilnut0088                       5e-04             64.49                 7              0.02                10                80                 0                 0                 0                 0                 0                  
soilnut0089                       5e-04             64.49                 7              0.02                10                80                 0                 0                 0                 0                 0                  
soilnut0090                       5e-04             64.49                 7              0.02                10                80                 0                 0                 0                 0                 0                  
soilnut0091                       5e-04             64.49                 7              0.02                10                80                 0                 0                 0                 0                 0                  
soilnut0092                       5e-04             52.54                 7              0.02                10                80                 0                 0                 0                 0                 0                  
soilnut0093                       5e-04             28.83                 7              0.02                10                80                 0                 0                 0                 0                 0                  
soilnut0094                       5e-04             38.58                 7              0.02                10                80                 0                 0                 0                 0                 0                  
soilnut0095                       5e-04             15.37                 7              0.02                10                80                 0                 0                 0                 0                 0                  
soilnut0096                       5e-04             64.49                 7              0.02                10                80                 0                 0                 0                 0                 0                  
soilnut0097                       5e-04             64.49                 7              0.02                10                80                 0                 0                 0                 0                 0                  
soilnut0098                       5e-04             64.49                 7              0.02                10                80                 0                 0                 0                 0                 0                  
soilnut0099                       5e-04             64.49                 7              0.02                10                80                 0                 0                 0                 0                 0                  
soilnut0100                       5e-04             64.49                 7              0.02                10                80                 0                 0                 0                 0                 0                  
soilnut0101                       5e-04             64.49                 7              0.02                10                80                 0                 0                 0                 0                 0                  
soilnut0102                       5e-04             11.73                 7              0.02                10                80                 0                 0                 0                 0                 0                  
soilnut0103                       5e-04             64.49                 7              0.02                10                80                 0                 0                 0                 0                 0                  
soilnut0104                       5e-04             64.49                 7              0.02                10                80                 0                 0                 0                 0                 0                  
soilnut0105                       5e-04             64.49                 7              0.02                10                80                 0                 0                 0                 0                 0                  
soilnut0106                       5e-04             64.49                 7              0.02                10                80                 0                 0                 0                 0                 0                  
soilnut0107                       5e-04             11.73                 7              0.02                10                80                 0                 0                 0                 0                 0                  
soilnut0108                       5e-04             64.49                 7              0.02                10                80                 0                 0                 0                 0                 0                  
soilnut0109                       5e-04             64.49                 7              0.02                10                80                 0                 0                 0                 0                 0                  
soilnut0110                       5e-04             64.49                 7              0.02                10                80                 0                 0                 0                 0                 0                  
soilnut0111                       5e-04             64.49                 7              0.02                10                80                 0                 0                 0                 0                 0                  
soilnut0112                       5e-04             64.49                 7              0.02                10                80                 0                 0                 0                 0                 0                  
soilnut0113                       5e-04             64.49                 7              0.02                10                80                 0                 0                 0                 0                 0                  
soilnut0114                       5e-04             64.49                 7              0.02                10                80                 0                 0                 0                 0                 0                  
soilnut0115                       5e-04             64.49                 7              0.02                10                80                 0                 0                 0                 0                 0                  
soilnut0116                       5e-04             64.49                 7              0.02                10                80                 0                 0                 0                 0                 0                  
soilnut0117                       5e-04             64.49                 7              0.02                10                80                 0                 0                 0                 0                 0                  
soilnut0118                       5e-04             64.16                 7              0.02                10                80                 0                 0                 0                 0                 0                  
soilnut0119                       5e-04             64.49                 7              0.02                10                80                 0                 0                 0                 0                 0                  
soilnut0120                       5e-04             63.58                 7              0.02                10                80                 0                 0                 0                 0                 0                  
soilnut0121                       5e-04             64.49                 7              0.02                10                80                 0                 0                 0                 0                 0                  
soilnut0122                       5e-04             64.49                 7              0.02                10                80                 0                 0                 0                 0                 0                  
soilnut0123                       5e-04             64.49                 7              0.02                10                80                 0                 0                 0                 0                 0                  
soilnut0124                       5e-04             64.49                 7              0.02                10                80                 0                 0                 0                 0                 0                  