object.cnt: written by SWAT+ editor v2.1.0 on 2023-09-11 10:25 for SWAT+ rev.60.5.4
name                   ls_area      tot_area       obj       hru      lhru       rtu       mfl       aqu       cha       res       rec      exco       dlr       can       pmp       out      lcha     aqu2d       hrd       wro  
project_June2023   11617.65741   11617.65741     14387      6832         0      6832         0         1         0        34         2         0         0         0         0         0       686         0         0         0  
