plant.ini: written by SWAT+ editor v2.1.0 on 2023-09-11 10:26 for SWAT+ rev.60.5.4 and edited with SWATfarmR 2.0.5 on 2024-02-16 10:53:17
pcom_name          plt_cnt  rot_yr_ini          plt_name     lc_status      lai_init       bm_init      phu_init      plnt_pop      yrs_init      rsd_init  
agrl_1000_com                4           1
                                                    trit             y             1          1000             0             0             1          1000
                                                    ryeg             n             0             0             0             0             0             0
                                                    wwht             n             0             0             0             0             0             0
                                                    fesc             n             0             0             0             0             0             0
agrl_1001_com                4           1
                                                    trit             y             1          1000             0             0             1          1000
                                                    ryeg             n             0             0             0             0             0             0
                                                    wwht             n             0             0             0             0             0             0
                                                    fesc             n             0             0             0             0             0             0
agrl_1002_com                4           1
                                                    trit             y             1          1000             0             0             1          1000
                                                    ryeg             n             0             0             0             0             0             0
                                                    wwht             n             0             0             0             0             0             0
                                                    fesc             n             0             0             0             0             0             0
agrl_1003_com                4           1
                                                    trit             y             1          1000             0             0             1          1000
                                                    ryeg             n             0             0             0             0             0             0
                                                    wwht             n             0             0             0             0             0             0
                                                    fesc             n             0             0             0             0             0             0
agrl_1004_com                4           1
                                                    trit             y             1          1000             0             0             1          1000
                                                    ryeg             n             0             0             0             0             0             0
                                                    wwht             n             0             0             0             0             0             0
                                                    fesc             n             0             0             0             0             0             0
agrl_1006_com                4           1
                                                    trit             y             1          1000             0             0             1          1000
                                                    ryeg             n             0             0             0             0             0             0
                                                    wwht             n             0             0             0             0             0             0
                                                    fesc             n             0             0             0             0             0             0
agrl_1007_com                4           1
                                                    trit             y             1          1000             0             0             1          1000
                                                    ryeg             n             0             0             0             0             0             0
                                                    wwht             n             0             0             0             0             0             0
                                                    fesc             n             0             0             0             0             0             0
agrl_1008_com                4           1
                                                    trit             y             1          1000             0             0             1          1000
                                                    ryeg             n             0             0             0             0             0             0
                                                    wwht             n             0             0             0             0             0             0
                                                    fesc             n             0             0             0             0             0             0
agrl_1009_com                4           1
                                                    trit             y             1          1000             0             0             1          1000
                                                    ryeg             n             0             0             0             0             0             0
                                                    wwht             n             0             0             0             0             0             0
                                                    fesc             n             0             0             0             0             0             0
agrl_1010_com                4           1
                                                    trit             y             1          1000             0             0             1          1000
                                                    ryeg             n             0             0             0             0             0             0
                                                    wwht             n             0             0             0             0             0             0
                                                    fesc             n             0             0             0             0             0             0
agrl_1016_com                4           1
                                                    trit             y             1          1000             0             0             1          1000
                                                    ryeg             n             0             0             0             0             0             0
                                                    wwht             n             0             0             0             0             0             0
                                                    fesc             n             0             0             0             0             0             0
agrl_1017_com                4           1
                                                    trit             y             1          1000             0             0             1          1000
                                                    ryeg             n             0             0             0             0             0             0
                                                    wwht             n             0             0             0             0             0             0
                                                    fesc             n             0             0             0             0             0             0
agrl_1018_com                4           1
                                                    trit             y             1          1000             0             0             1          1000
                                                    ryeg             n             0             0             0             0             0             0
                                                    wwht             n             0             0             0             0             0             0
                                                    fesc             n             0             0             0             0             0             0
agrl_1019_com                4           1
                                                    trit             y             1          1000             0             0             1          1000
                                                    ryeg             n             0             0             0             0             0             0
                                                    wwht             n             0             0             0             0             0             0
                                                    fesc             n             0             0             0             0             0             0
agrl_1020_com                4           1
                                                    trit             y             1          1000             0             0             1          1000
                                                    ryeg             n             0             0             0             0             0             0
                                                    wwht             n             0             0             0             0             0             0
                                                    fesc             n             0             0             0             0             0             0
agrl_1021_com                4           1
                                                    trit             y             1          1000             0             0             1          1000
                                                    ryeg             n             0             0             0             0             0             0
                                                    wwht             n             0             0             0             0             0             0
                                                    fesc             n             0             0             0             0             0             0
agrl_1022_com                4           1
                                                    trit             y             1          1000             0             0             1          1000
                                                    ryeg             n             0             0             0             0             0             0
                                                    wwht             n             0             0             0             0             0             0
                                                    fesc             n             0             0             0             0             0             0
agrl_1023_com                4           1
                                                    trit             y             1          1000             0             0             1          1000
                                                    ryeg             n             0             0             0             0             0             0
                                                    wwht             n             0             0             0             0             0             0
                                                    fesc             n             0             0             0             0             0             0
agrl_1024_com                4           1
                                                    trit             y             1          1000             0             0             1          1000
                                                    ryeg             n             0             0             0             0             0             0
                                                    wwht             n             0             0             0             0             0             0
                                                    fesc             n             0             0             0             0             0             0
agrl_1025_com                4           1
                                                    trit             y             1          1000             0             0             1          1000
                                                    ryeg             n             0             0             0             0             0             0
                                                    wwht             n             0             0             0             0             0             0
                                                    fesc             n             0             0             0             0             0             0
agrl_1026_com                4           1
                                                    trit             y             1          1000             0             0             1          1000
                                                    ryeg             n             0             0             0             0             0             0
                                                    wwht             n             0             0             0             0             0             0
                                                    fesc             n             0             0             0             0             0             0
agrl_1027_com                4           1
                                                    trit             y             1          1000             0             0             1          1000
                                                    ryeg             n             0             0             0             0             0             0
                                                    wwht             n             0             0             0             0             0             0
                                                    fesc             n             0             0             0             0             0             0
agrl_1028_com                4           1
                                                    trit             y             1          1000             0             0             1          1000
                                                    ryeg             n             0             0             0             0             0             0
                                                    wwht             n             0             0             0             0             0             0
                                                    fesc             n             0             0             0             0             0             0
agrl_1029_com                4           1
                                                    trit             y             1          1000             0             0             1          1000
                                                    ryeg             n             0             0             0             0             0             0
                                                    wwht             n             0             0             0             0             0             0
                                                    fesc             n             0             0             0             0             0             0
agrl_1030_com                4           1
                                                    trit             y             1          1000             0             0             1          1000
                                                    ryeg             n             0             0             0             0             0             0
                                                    wwht             n             0             0             0             0             0             0
                                                    fesc             n             0             0             0             0             0             0
agrl_1032_com                4           1
                                                    trit             y             1          1000             0             0             1          1000
                                                    ryeg             n             0             0             0             0             0             0
                                                    wwht             n             0             0             0             0             0             0
                                                    fesc             n             0             0             0             0             0             0
agrl_1033_com                4           1
                                                    trit             y             1          1000             0             0             1          1000
                                                    ryeg             n             0             0             0             0             0             0
                                                    wwht             n             0             0             0             0             0             0
                                                    fesc             n             0             0             0             0             0             0
agrl_1034_com                4           1
                                                    trit             y             1          1000             0             0             1          1000
                                                    ryeg             n             0             0             0             0             0             0
                                                    wwht             n             0             0             0             0             0             0
                                                    fesc             n             0             0             0             0             0             0
agrl_1035_com                4           1
                                                    trit             y             1          1000             0             0             1          1000
                                                    ryeg             n             0             0             0             0             0             0
                                                    wwht             n             0             0             0             0             0             0
                                                    fesc             n             0             0             0             0             0             0
agrl_1036_com                4           1
                                                    trit             y             1          1000             0             0             1          1000
                                                    ryeg             n             0             0             0             0             0             0
                                                    wwht             n             0             0             0             0             0             0
                                                    fesc             n             0             0             0             0             0             0
agrl_1041_com                4           1
                                                    trit             y             1          1000             0             0             1          1000
                                                    ryeg             n             0             0             0             0             0             0
                                                    wwht             n             0             0             0             0             0             0
                                                    fesc             n             0             0             0             0             0             0
agrl_1042_com                4           1
                                                    trit             y             1          1000             0             0             1          1000
                                                    ryeg             n             0             0             0             0             0             0
                                                    wwht             n             0             0             0             0             0             0
                                                    fesc             n             0             0             0             0             0             0
agrl_1044_com                4           1
                                                    trit             y             1          1000             0             0             1          1000
                                                    ryeg             n             0             0             0             0             0             0
                                                    wwht             n             0             0             0             0             0             0
                                                    fesc             n             0             0             0             0             0             0
agrl_1045_com                4           1
                                                    trit             y             1          1000             0             0             1          1000
                                                    ryeg             n             0             0             0             0             0             0
                                                    wwht             n             0             0             0             0             0             0
                                                    fesc             n             0             0             0             0             0             0
agrl_1046_com                4           1
                                                    trit             y             1          1000             0             0             1          1000
                                                    ryeg             n             0             0             0             0             0             0
                                                    wwht             n             0             0             0             0             0             0
                                                    fesc             n             0             0             0             0             0             0
agrl_1047_com                4           1
                                                    trit             y             1          1000             0             0             1          1000
                                                    ryeg             n             0             0             0             0             0             0
                                                    wwht             n             0             0             0             0             0             0
                                                    fesc             n             0             0             0             0             0             0
agrl_1048_com                4           1
                                                    trit             y             1          1000             0             0             1          1000
                                                    ryeg             n             0             0             0             0             0             0
                                                    wwht             n             0             0             0             0             0             0
                                                    fesc             n             0             0             0             0             0             0
agrl_1049_com                3           1
                                                    ryeg             y             1          1000             0             0             1          1000
                                                    csil             n             0             0             0             0             0             0
                                                    fesc             n             0             0             0             0             0             0
agrl_1051_com                3           1
                                                    ryeg             y             1          1000             0             0             1          1000
                                                    csil             n             0             0             0             0             0             0
                                                    fesc             n             0             0             0             0             0             0
agrl_1052_com                4           1
                                                    trit             y             1          1000             0             0             1          1000
                                                    ryeg             n             0             0             0             0             0             0
                                                    wwht             n             0             0             0             0             0             0
                                                    fesc             n             0             0             0             0             0             0
agrl_1053_com                4           1
                                                    trit             y             1          1000             0             0             1          1000
                                                    ryeg             n             0             0             0             0             0             0
                                                    wwht             n             0             0             0             0             0             0
                                                    fesc             n             0             0             0             0             0             0
agrl_1054_com                4           1
                                                    trit             y             1          1000             0             0             1          1000
                                                    ryeg             n             0             0             0             0             0             0
                                                    wwht             n             0             0             0             0             0             0
                                                    fesc             n             0             0             0             0             0             0
agrl_1055_com                4           1
                                                    trit             y             1          1000             0             0             1          1000
                                                    ryeg             n             0             0             0             0             0             0
                                                    wwht             n             0             0             0             0             0             0
                                                    fesc             n             0             0             0             0             0             0
agrl_1056_com                4           1
                                                    trit             y             1          1000             0             0             1          1000
                                                    ryeg             n             0             0             0             0             0             0
                                                    wwht             n             0             0             0             0             0             0
                                                    fesc             n             0             0             0             0             0             0
agrl_1057_com                4           1
                                                    trit             y             1          1000             0             0             1          1000
                                                    ryeg             n             0             0             0             0             0             0
                                                    wwht             n             0             0             0             0             0             0
                                                    fesc             n             0             0             0             0             0             0
agrl_1058_com                4           1