reservoir.con: written by SWAT+ editor v2.1.0 on 2023-09-11 10:25 for SWAT+ rev.60.5.4
      id  name                gis_id          area           lat           lon          elev       res               wst       cst      ovfl      rule   out_tot       obj_typ    obj_id       hyd_typ          frac  
       1  res01                    0       0.08200      50.00661       5.01249     404.31240         1      s49979n4979e         0         0         0         1           sdc        91           tot       1.00000  
       2  res02                    0       0.03080      50.01204       5.00727     384.30010         2      s49979n4979e         0         0         0         1           sdc       638           tot       1.00000  
       3  res03                    0       0.04280      50.01261       5.00700     383.33769         3      s49979n4979e         0         0         0         1           sdc       639           tot       1.00000  
       4  res04                    0       0.04120      50.01793       4.97728     407.89041         4      s49979n4979e         0         0         0         0  
       5  res05                    0       0.01040      50.01909       4.97941     399.87684         5      s49979n4979e         0         0         0         0  
       6  res06                    0       0.51160      50.04307       4.97139     360.59828         6      s49979n4979e         0         0         0         1           sdc        70           tot       1.00000  
       7  res07                    0       0.00600      50.01788       5.02082     420.24526         7      s49979n4979e         0         0         0         1           sdc       542           tot       1.00000  
       8  res08                    0       0.10360      50.04918       5.00260     280.32892         8       s5011n4951e         0         0         0         1           sdc       278           tot       1.00000  
       9  res09                    0       0.12240      50.05240       4.94111     318.94882         9       s5011n4951e         0         0         0         1           sdc        74           tot       1.00000  
      10  res10                    0       0.31640      50.05963       4.97945     314.36329        10       s5011n4951e         0         0         0         0  
      11  res11                    0       0.40760      50.05200       4.98627     324.87851        11       s5011n4951e         0         0         0         1           sdc       101           tot       1.00000  
      12  res12                    0       0.00600      50.06019       4.99411     309.39833        12       s5011n4951e         0         0         0         0  
      13  res13                    0       0.15080      50.06637       5.06222     322.58450        13       s5004n5128e         0         0         0         0  
      14  res14                    0       0.03560      50.06863       5.00717     245.37638        14       s5011n4951e         0         0         0         1           sdc       521           tot       1.00000  
      15  res15                    0       0.60600      50.07771       5.01909     221.79576        15       s5011n4951e         0         0         0         0  
      16  res16                    0       0.20360      50.07512       4.92420     301.18518        16       s5011n4951e         0         0         0         1           sdc        45           tot       1.00000  
      17  res17                    0       0.21600      50.07576       5.01751     223.18532        17       s5011n4951e         0         0         0         0  
      18  res18                    0       0.07400      50.07620       4.96029     251.81644        18       s5011n4951e         0         0         0         0  
      19  res19                    0       0.12120      50.07632       4.96137     251.65139        19       s5011n4951e         0         0         0         0  
      20  res20                    0       0.61960      50.07747       4.94345     268.23661        20       s5011n4951e         0         0         0         1           sdc       347           tot       1.00000  
      21  res21                    0       0.55623      50.07735       4.96436     249.15743        21       s5011n4951e         0         0         0         0  
      22  res22                    0       0.00840      50.08269       5.04398     234.29960        22       s5011n4951e         0         0         0         0  
      23  res23                    0       0.22000      50.09388       5.05056     193.80103        23       s5011n4951e         0         0         0         0  
      24  res24                    0       0.00640      50.09388       5.04226     197.64641        24       s5011n4951e         0         0         0         0  
      25  res25                    0       0.01040      50.09715       5.07627     209.43185        25       s5004n5128e         0         0         0         0  
      26  res26                    0       0.75840      50.08885       5.02538     208.93622        26       s5011n4951e         0         0         0         0  
      27  res27                    0       0.08752      50.10345       5.01807     225.72288        27       s5011n4951e         0         0         0         1           sdc       633           tot       1.00000  
      28  res28                    0       0.33040      50.11611       5.09167     172.30750        28       s5004n5128e         0         0         0         1           sdc        99           tot       1.00000  
      29  res29                    0       0.13880      50.11750       5.09341     172.30720        29       s5004n5128e         0         0         0         0  
      30  res30                    0       0.00800      50.13321       5.12999     146.83817        30      s50165n5214e         0         0         0         0  
      31  res31                    0       0.00680      50.13792       5.14857     145.68854        31      s50165n5214e         0         0         0         0  
      32  res32                    0       0.57240      50.08082       5.02052     219.20341        32       s5011n4951e         0         0         0         0  
      33  res33                    0       0.83656      50.08302       5.02097     215.50415        33       s5011n4951e         0         0         0         0  
      34  res34                    0       0.95240      50.11805       5.09395     172.30706        34       s5004n5128e         0         0         0         1           sdc        24           tot       1.00000  
