rout_unit.con: written by SWAT+ editor v2.1.0 on 2023-09-11 10:25 for SWAT+ rev.60.5.4
      id  name                gis_id          area           lat           lon          elev       rtu               wst       cst      ovfl      rule   out_tot       obj_typ    obj_id       hyd_typ          frac  
       1  rtu0001                  0     111.00187      50.03677       4.99724     336.92913         1      s49979n4979e         0         0         0         2           sdc        62           tot       1.00000           aqu         1           rhg       1.00000  
       2  rtu0002                  0       4.96929      50.09212       5.03031     207.94016         2       s5011n4951e         0         0         0         4           sdc       159           tot       0.34572           sdc       157           tot       0.22027            ru      2194           tot       0.43401           aqu         1           rhg       1.00000  
       3  rtu0003                  0       1.62486      50.09490       5.05760     191.69524         3       s5011n4951e         0         0         0         2            ru      6413           tot       1.00000           aqu         1           rhg       1.00000  
       4  rtu0004                  0       8.10240      50.12228       5.09717     168.62920         4       s5004n5128e         0         0         0         3           sdc       665           tot       0.35064            ru      4938           tot       0.64936           aqu         1           rhg       1.00000  
       5  rtu0005                  0       2.76019      50.11861       5.11646     180.17877         5      s50165n5214e         0         0         0         2            ru       956           tot       1.00000           aqu         1           rhg       1.00000  
       6  rtu0006                  0       4.60704      50.12344       5.14500     190.82940         6      s50165n5214e         0         0         0         5            ru       819           tot       0.15613            ru      3771           tot       0.32544            ru      3835           tot       0.28879            ru      5806           tot       0.22963           aqu         1           rhg       1.00000  
       7  rtu0007                  0       1.70885      50.13862       5.12776     144.07921         7      s50165n5214e         0         0         0         2           sdc       329           tot       1.00000           aqu         1           rhg       1.00000  
       8  rtu0008                  0       0.46852      50.14231       5.14063     144.25874         8      s50165n5214e         0         0         0         2            ru      1697           tot       1.00000           aqu         1           rhg       1.00000  
       9  rtu0009                  0      38.90774      50.02861       5.00219     377.68539         9      s49979n4979e         0         0         0         3            ru         1           tot       0.63816            ru      4935           tot       0.36184           aqu         1           rhg       1.00000  
      10  rtu0010                  0      86.30216      50.01962       5.00479     371.57068        10      s49979n4979e         0         0         0         4           sdc       639           tot       0.47301           sdc        89           tot       0.29420           sdc        62           tot       0.23279           aqu         1           rhg       1.00000  
      11  rtu0011                  0       0.39540      50.09263       5.02503     217.75038        11       s5011n4951e         0         0         0         2            ru      2491           tot       1.00000           aqu         1           rhg       1.00000  
      12  rtu0012                  0       0.21849      50.09390       5.02041     235.78889        12       s5011n4951e         0         0         0         2            ru      1979           tot       1.00000           aqu         1           rhg       1.00000  
      13  rtu0013                  0       0.05800      50.09272       5.02119     231.66958        13       s5011n4951e         0         0         0         3            ru      2597           tot       0.33774            ru      2598           tot       0.66226           aqu         1           rhg       1.00000  
      14  rtu0014                  0       0.01280      50.09369       5.02088     233.39640        14       s5011n4951e         0         0         0         2            ru      1979           tot       1.00000           aqu         1           rhg       1.00000  
      15  rtu0015                  0       0.05398      50.09198       5.01704     255.92422        15       s5011n4951e         0         0         0         2            ru      2574           tot       1.00000           aqu         1           rhg       1.00000  
      16  rtu0016                  0       0.53271      50.08954       5.01205     271.49698        16       s5011n4951e         0         0         0         2            ru      3277           tot       1.00000           aqu         1           rhg       1.00000  
      17  rtu0017                  0       0.09917      50.08937       5.01294     269.13738        17       s5011n4951e         0         0         0         2            ru      2555           tot       1.00000           aqu         1           rhg       1.00000  
      18  rtu0018                  0       0.09489      50.09072       5.01539     263.24252        18       s5011n4951e         0         0         0         2            ru        15           tot       1.00000           aqu         1           rhg       1.00000  
      19  rtu0019                  0      15.86491      50.13648       5.13501     165.63654        19      s50165n5214e         0         0         0         4            ru      3618           tot       0.38718            ru      3626           tot       0.21135            ru      5603           tot       0.40147           aqu         1           rhg       1.00000  
      20  rtu0020                  0       0.28668      50.06398       5.05416     339.89855        20       s5004n5128e         0         0         0         2            ru      5777           tot       1.00000           aqu         1           rhg       1.00000  
      21  rtu0021                  0       0.37776      50.06647       5.04794     333.39313        21       s5004n5128e         0         0         0         2            ru      6056           tot       1.00000           aqu         1           rhg       1.00000  
      22  rtu0022                  0       0.80802      50.06810       5.05479     306.65502        22       s5004n5128e         0         0         0         3           sdc       445           tot       0.29900            ru      6056           tot       0.70100           aqu         1           rhg       1.00000  
      23  rtu0023                  0       0.20936      50.06989       5.04622     301.92882        23       s5004n5128e         0         0         0         2            ru      5244           tot       1.00000           aqu         1           rhg       1.00000  
      24  rtu0024                  0       0.11002      50.06641       5.05131     327.51325        24       s5004n5128e         0         0         0         2            ru      6056           tot       1.00000           aqu         1           rhg       1.00000  
      25  rtu0025                  0       0.18659      50.06859       5.05070     309.08622        25       s5004n5128e         0         0         0         2            ru      6056           tot       1.00000           aqu         1           rhg       1.00000  
      26  rtu0026                  0       0.64947      50.07071       5.05820     294.16895        26       s5004n5128e         0         0         0         4            ru      5501           tot       0.42274            ru      6227           tot       0.24715            ru      6405           tot       0.33012           aqu         1           rhg       1.00000  
      27  rtu0027                  0       0.01464      50.06725       5.06151     324.28400        27       s5004n5128e         0         0         0         2            ru      1775           tot       1.00000           aqu         1           rhg       1.00000  
      28  rtu0028                  0       0.00714      50.06746       5.06024     322.55516        28       s5004n5128e         0         0         0         2            ru      6773           tot       1.00000           aqu         1           rhg       1.00000  
      29  rtu0029                  0       0.00608      50.06815       5.06002     320.04975        29       s5004n5128e         0         0         0         2            ru      1775           tot       1.00000           aqu         1           rhg       1.00000  
      30  rtu0030                  0       0.00968      50.06821       5.05947     319.05480        30       s5004n5128e         0         0         0         2            ru      1775           tot       1.00000           aqu         1           rhg       1.00000  
      31  rtu0031                  0       0.23652      50.07021       5.04041     328.08260        31       s5004n5128e         0         0         0         4            ru      1777           tot       0.42104            ru      1779           tot       0.27492            ru      4952           tot       0.30404           aqu         1           rhg       1.00000  
      32  rtu0032                  0       0.01833      50.06521       5.01353     259.38718        32       s5011n4951e         0         0         0         2           sdc       176           tot       1.00000           aqu         1           rhg       1.00000  
      33  rtu0033                  0       0.00593      50.06690       5.01316     251.33777        33       s5011n4951e         0         0         0         2            ru      5486           tot       1.00000           aqu         1           rhg       1.00000  
      34  rtu0034                  0       0.00815      50.06576       5.01335     256.40813        34       s5011n4951e         0         0         0         2           sdc       176           tot       1.00000           aqu         1           rhg       1.00000  
      35  rtu0035                  0       0.02686      50.06937       5.01372     238.80741        35       s5011n4951e         0         0         0         2           sdc       176           tot       1.00000           aqu         1           rhg       1.00000  
      36  rtu0036                  0       0.11872      50.06909       5.01358     240.46159        36       s5011n4951e         0         0         0         3            ru      1793           tot       0.31061            ru      1794           tot       0.68939           aqu         1           rhg       1.00000  
      37  rtu0037                  0       0.01466      50.06480       5.01380     261.93849        37       s5011n4951e         0         0         0         2            ru      5486           tot       1.00000           aqu         1           rhg       1.00000  
      38  rtu0038                  0       0.01142      50.06436       5.01429     265.53688        38       s5011n4951e         0         0         0         2           sdc       517           tot       1.00000           aqu         1           rhg       1.00000  
      39  rtu0039                  0       0.03658      50.06400       5.01478     268.51660        39       s5011n4951e         0         0         0         2           sdc       623           tot       1.00000           aqu         1           rhg       1.00000  
      40  rtu0040                  0       0.01703      50.07438       5.01768     224.89316        40       s5011n4951e         0         0         0         2           sdc       263           tot       1.00000           aqu         1           rhg       1.00000  
      41  rtu0041                  0       0.09552      50.07420       5.01780     225.22747        41       s5011n4951e         0         0         0         3            ru        40           tot       0.66667            ru        42           tot       0.33333           aqu         1           rhg       1.00000  
      42  rtu0042                  0       0.01405      50.07456       5.01770     224.95550        42       s5011n4951e         0         0         0         2            ru      5546           tot       1.00000           aqu         1           rhg       1.00000  
      43  rtu0043                  0       0.02086      50.07336       5.01807     225.83757        43       s5011n4951e         0         0         0         3           sdc        34           tot       0.55294            ru      1799           tot       0.44706           aqu         1           rhg       1.00000  
      44  rtu0044                  0       0.01653      50.07360       5.01814     225.89430        44       s5011n4951e         0         0         0         2            ru        43           tot       1.00000           aqu         1           rhg       1.00000  
      45  rtu0045                  0       0.08508      50.07150       5.02127     229.65920        45       s5011n4951e         0         0         0         2            ru      6007           tot       1.00000           aqu         1           rhg       1.00000  
      46  rtu0046                  0       0.08233      50.07189       5.02005     228.55279        46       s5011n4951e         0         0         0         3            ru        48           tot       0.60215            ru      6438           tot       0.39785           aqu         1           rhg       1.00000  
      47  rtu0047                  0       0.02350      50.07219       5.01916     227.81371        47       s5011n4951e         0         0         0         2            ru      1354           tot       1.00000           aqu         1           rhg       1.00000  
      48  rtu0048                  0       0.01981      50.07203       5.01950     228.07277        48       s5011n4951e         0         0         0         2            ru        47           tot       1.00000           aqu         1           rhg       1.00000  
      49  rtu0049                  0       0.06569      50.06951       5.02144     232.10680        49       s5011n4951e         0         0         0         2            ru      1801           tot       1.00000           aqu         1           rhg       1.00000  
      50  rtu0050                  0       0.06671      50.06905       5.02277     232.54456        50       s5011n4951e         0         0         0         2            ru      1802           tot       1.00000           aqu         1           rhg       1.00000  
      51  rtu0051                  0       0.28736      50.06844       5.02224     234.34606        51       s5011n4951e         0         0         0         3            ru        53           tot       0.69843            ru      1810           tot       0.30157           aqu         1           rhg       1.00000  
      52  rtu0052                  0       0.07160      50.06929       5.02153     232.50528        52       s5011n4951e         0         0         0         3            ru        49           tot       0.31250            ru        53           tot       0.68750           aqu         1           rhg       1.00000  
      53  rtu0053                  0       0.57607      50.06874       5.02232     233.45796        53       s5011n4951e         0         0         0         3           sdc       588           tot       0.35340            ru      1808           tot       0.64660           aqu         1           rhg       1.00000  
      54  rtu0054                  0       0.15801      50.07623       5.03656     306.36916        54       s5011n4951e         0         0         0         2            ru      2526           tot       1.00000           aqu         1           rhg       1.00000  
      55  rtu0055                  0       0.31120      50.07405       5.03667     322.76881        55       s5011n4951e         0         0         0         2            ru      4952           tot       1.00000           aqu         1           rhg       1.00000  
      56  rtu0056                  0       0.79561      50.09354       5.03329     201.66558        56       s5011n4951e         0         0         0         1           aqu         1           rhg       1.00000  
      57  rtu0057                  0       0.23228      50.09440       5.03751     202.41192        57       s5011n4951e         0         0         0         2           sdc       255           tot       1.00000           aqu         1           rhg       1.00000  
      58  rtu0058                  0       0.10998      50.09492       5.03771     207.72513        58       s5011n4951e         0         0         0         2            ru      1932           tot       1.00000           aqu         1           rhg       1.00000  
      59  rtu0059                  0       0.02851      50.09368       5.03982     198.21913        59       s5011n4951e         0         0         0         2           sdc        26           tot       1.00000           aqu         1           rhg       1.00000  
      60  rtu0060                  0       1.19246      50.09566       5.03963     220.10787        60       s5011n4951e         0         0         0         2            ru      1941           tot       1.00000           aqu         1           rhg       1.00000  
      61  rtu0061                  0       0.17643      50.09504       5.03531     207.73998        61       s5011n4951e         0         0         0         2           sdc       434           tot       1.00000           aqu         1           rhg       1.00000  
      62  rtu0062                  0       0.12577      50.09620       5.03699     213.24748        62       s5011n4951e         0         0         0         2            ru      1943           tot       1.00000           aqu         1           rhg       1.00000  
      63  rtu0063                  0       0.39797      50.09649       5.03608     209.60809        63       s5011n4951e         0         0         0         2           sdc       435           tot       1.00000           aqu         1           rhg       1.00000  
      64  rtu0064                  0       0.22933      50.09588       5.03364     207.95009        64       s5011n4951e         0         0         0         2            ru      1485           tot       1.00000           aqu         1           rhg       1.00000  
      65  rtu0065                  0       0.33942      50.09560       5.03265     210.02824        65       s5011n4951e         0         0         0         3            ru      1945           tot       0.70348            ru      6119           tot       0.29652           aqu         1           rhg       1.00000  
      66  rtu0066                  0       0.54680      50.09591       5.03251     212.79556        66       s5011n4951e         0         0         0         3            ru        65           tot       0.63127            ru      6119           tot       0.36873           aqu         1           rhg       1.00000  
      67  rtu0067                  0       0.32190      50.09640       5.03825     222.33596        67       s5011n4951e         0         0         0         2            ru      1946           tot       1.00000           aqu         1           rhg       1.00000  
      68  rtu0068                  0       1.20517      50.09710       5.03895     225.09625        68       s5011n4951e         0         0         0         2            ru      5988           tot       1.00000           aqu         1           rhg       1.00000  
      69  rtu0069                  0       0.04004      50.09800       5.03577     214.10206        69       s5011n4951e         0         0         0         3           sdc       437           tot       0.39621           sdc       436           tot       0.60379           aqu         1           rhg       1.00000  
      70  rtu0070                  0       0.30487      50.09848       5.03833     227.69413        70       s5011n4951e         0         0         0         2            ru      1950           tot       1.00000           aqu         1           rhg       1.00000  
      71  rtu0071                  0       0.08033      50.09796       5.04704     218.87420        71       s5011n4951e         0         0         0         2            ru       140           tot       1.00000           aqu         1           rhg       1.00000  
      72  rtu0072                  0       0.46142      50.09999       5.03946     236.75111        72       s5011n4951e         0         0         0         2            ru      5988           tot       1.00000           aqu         1           rhg       1.00000  
      73  rtu0073                  0       0.00996      50.09802       5.03935     228.88696        73       s5011n4951e         0         0         0         2            ru      1955           tot       1.00000           aqu         1           rhg       1.00000  
      74  rtu0074                  0       0.04717      50.10152       5.04012     242.29918        74       s5011n4951e         0         0         0         2            ru      1955           tot       1.00000           aqu         1           rhg       1.00000  
      75  rtu0075                  0       0.00538      50.09808       5.03922     229.31196        75       s5011n4951e         0         0         0         2            ru      1955           tot       1.00000           aqu         1           rhg       1.00000  
      76  rtu0076                  0       0.38832      50.09809       5.03816     225.43624        76       s5011n4951e         0         0         0         2            ru      1956           tot       1.00000           aqu         1           rhg       1.00000  
      77  rtu0077                  0       0.00767      50.09829       5.03888     230.13741        77       s5011n4951e         0         0         0         2            ru      5988           tot       1.00000           aqu         1           rhg       1.00000  
      78  rtu0078                  0       1.72502      50.09969       5.03980     235.60148        78       s5011n4951e         0         0         0         2            ru      1955           tot       1.00000           aqu         1           rhg       1.00000  
      79  rtu0079                  0       0.07931      50.09871       5.03696     220.09750        79       s5011n4951e         0         0         0         2            ru      1950           tot       1.00000           aqu         1           rhg       1.00000  
      80  rtu0080                  0       0.01080      50.10012       5.03382     226.64439        80       s5011n4951e         0         0         0         3            ru        82           tot       0.45554            ru      1960           tot       0.54446           aqu         1           rhg       1.00000  
      81  rtu0081                  0       0.26242      50.09910       5.03889     233.06996        81       s5011n4951e         0         0         0         2            ru        70           tot       1.00000           aqu         1           rhg       1.00000  
      82  rtu0082                  0       0.11612      50.09978       5.03371     225.11103        82       s5011n4951e         0         0         0         3            ru        83           tot       0.42548            ru      1963           tot       0.57452           aqu         1           rhg       1.00000  
      83  rtu0083                  0       0.02345      50.09954       5.03367     223.54824        83       s5011n4951e         0         0         0         2            ru      1964           tot       1.00000           aqu         1           rhg       1.00000  
      84  rtu0084                  0       0.38437      50.10042       5.03914     237.30778        84       s5011n4951e         0         0         0         2            ru      1967           tot       1.00000           aqu         1           rhg       1.00000  
      85  rtu0085                  0       0.01933      50.10191       5.04228     242.27209        85       s5011n4951e         0         0         0         2            ru      5623           tot       1.00000           aqu         1           rhg       1.00000  
      86  rtu0086                  0       0.24372      50.10213       5.03353     237.76105        86       s5011n4951e         0         0         0         2            ru      1972           tot       1.00000           aqu         1           rhg       1.00000  
      87  rtu0087                  0       0.43745      50.10197       5.03839     236.43735        87       s5011n4951e         0         0         0         2            ru      1973           tot       1.00000           aqu         1           rhg       1.00000  
      88  rtu0088                  0       0.03554      50.09473       5.02880     204.11396        88       s5011n4951e         0         0         0         3           sdc       216           tot       0.55696            ru      5891           tot       0.44304           aqu         1           rhg       1.00000  
      89  rtu0089                  0       0.01914      50.09528       5.01265     215.53040        89       s5011n4951e         0         0         0         3           sdc       223           tot       0.34928            ru      6053           tot       0.65072           aqu         1           rhg       1.00000  
      90  rtu0090                  0       0.01019      50.09509       5.01175     215.83347        90       s5011n4951e         0         0         0         2            ru      6053           tot       1.00000           aqu         1           rhg       1.00000  
      91  rtu0091                  0       0.01925      50.09473       5.01064     216.16461        91       s5011n4951e         0         0         0         2            ru      6053           tot       1.00000           aqu         1           rhg       1.00000  
      92  rtu0092                  0       0.02260      50.09427       5.00983     216.59270        92       s5011n4951e         0         0         0         3           sdc       223           tot       0.41509            ru      6053           tot       0.58491           aqu         1           rhg       1.00000  
      93  rtu0093                  0       0.01553      50.09531       5.01408     214.60521        93       s5011n4951e         0         0         0         2            ru      6053           tot       1.00000           aqu         1           rhg       1.00000  
      94  rtu0094                  0       0.01664      50.09540       5.01348     215.17941        94       s5011n4951e         0         0         0         3           sdc       223           tot       0.43750            ru      6053           tot       0.56250           aqu         1           rhg       1.00000  
      95  rtu0095                  0       0.01382      50.09546       5.01409     214.92754        95       s5011n4951e         0         0         0         2            ru      6053           tot       1.00000           aqu         1           rhg       1.00000  
      96  rtu0096                  0       0.01016      50.09500       5.01395     214.61987        96       s5011n4951e         0         0         0         2            ru      6053           tot       1.00000           aqu         1           rhg       1.00000  
      97  rtu0097                  0       0.00554      50.09687       5.02837     205.57568        97       s5011n4951e         0         0         0         2            ru      6812           tot       1.00000           aqu         1           rhg       1.00000  
      98  rtu0098                  0       0.13032      50.09594       5.02863     204.90382        98       s5011n4951e         0         0         0         2           sdc       216           tot       1.00000           aqu         1           rhg       1.00000  
      99  rtu0099                  0       0.00581      50.09663       5.02238     211.58094        99       s5011n4951e         0         0         0         2            ru      6743           tot       1.00000           aqu         1           rhg       1.00000  
     100  rtu0100                  0       0.03259      50.09642       5.02127     211.07981       100       s5011n4951e         0         0         0         2           sdc       423           tot       1.00000           aqu         1           rhg       1.00000  
     101  rtu0101                  0       0.02676      50.09741       5.02343     209.20853       101       s5011n4951e         0         0         0         2           sdc       423           tot       1.00000           aqu         1           rhg       1.00000  
     102  rtu0102                  0       0.04125      50.09728       5.01119     227.66395       102       s5011n4951e         0         0         0         2           sdc       410           tot       1.00000           aqu         1           rhg       1.00000  
     103  rtu0103                  0       0.02702      50.09620       5.02067     211.19080       103       s5011n4951e         0         0         0         3           sdc       423           tot       0.47414            ru      5712           tot       0.52586           aqu         1           rhg       1.00000  
     104  rtu0104                  0       0.03239      50.09666       5.02200     210.39149       104       s5011n4951e         0         0         0         2           sdc       423           tot       1.00000           aqu         1           rhg       1.00000  