soils.sol: written by SWAT+ editor v2.1.0 on 2023-09-07 14:03 for SWAT+ rev.60.5.4, edited manually on 2023-12-11 11:29:05.688029
name                            nly           hyd_grp        dp_tot    anion_excl      perc_crk texture                               dp            bd           awc        soil_k        carbon          clay          silt          sand          rock           alb        usle_k            ec         caco3            ph
Aba_20                            1                 C    1250.00000       0.50000       0.50000 null                                                                                                                                                                                                                          
                                                                                                                              1250.00000       1.43922       0.18635       0.27731       2.00000      15.00000      75.00000      10.00000       0.00000       0.15605       0.34793       0.09000       0.00000       6.00000
Aba_30                            1                 C    1250.00000       0.50000       0.50000 null                                                                                                                                                                                                                          
                                                                                                                              1250.00000       1.34578       0.20149       0.19314       3.00000      15.00000      75.00000      10.00000       0.00000       0.16041       0.34206       0.09000       0.00000       6.00000
Aba_40                            1                 C    1250.00000       0.50000       0.50000 null                                                                                                                                                                                                                          
                                                                                                                              1250.00000       1.26700       0.21670       0.29417       4.00000      15.00000      75.00000      10.00000       0.00000       0.15957       0.34184       0.09000       0.00000       6.00000
fuAdb2_0                          2                 C    1250.00000       0.50000       0.50000 null                                                                                                                                                                                                                          
                                                                                                                               600.00000       1.80426       0.13396       0.17696       0.05000      15.00000      75.00000      10.00000       0.00000       0.17229       0.45562       0.09000       0.00000       6.00000
                                                                                                                              1250.00000       1.85426       0.10486       1.14433       0.05000      30.00000      50.00000      20.00000       0.00000       0.16130       0.37527       0.09000       0.00000       6.00000
fuAdb2_20                         2                 C    1250.00000       0.50000       0.50000 null                                                                                                                                                                                                                          
                                                                                                                               600.00000       1.43922       0.18727       0.63910       2.00000      15.00000      75.00000      10.00000       0.00000       0.15593       0.34793       0.09000       0.00000       6.00000
                                                                                                                              1250.00000       1.85426       0.10486       1.14433       0.05000      30.00000      50.00000      20.00000       0.00000       0.16130       0.37527       0.09000       0.00000       6.00000
fuAdb2_30                         2                 C    1250.00000       0.50000       0.50000 null                                                                                                                                                                                                                          
                                                                                                                               600.00000       1.34578       0.20122       0.21922       3.00000      15.00000      75.00000      10.00000       0.00000       0.15939       0.34206       0.09000       0.00000       6.00000
                                                                                                                              1250.00000       1.85426       0.10486       1.14433       0.05000      30.00000      50.00000      20.00000       0.00000       0.16130       0.37527       0.09000       0.00000       6.00000
fuAdb2_40                         2                 C    1250.00000       0.50000       0.50000 null                                                                                                                                                                                                                          
                                                                                                                               600.00000       1.26700       0.21576       0.28358       4.00000      15.00000      75.00000      10.00000       0.00000       0.15920       0.34184       0.09000       0.00000       6.00000
                                                                                                                              1250.00000       1.85426       0.10486       1.14433       0.05000      30.00000      50.00000      20.00000       0.00000       0.16130       0.37527       0.09000       0.00000       6.00000
AIp_0                             1                 C    1250.00000       0.50000       0.50000 null                                                                                                                                                                                                                          
                                                                                                                              1250.00000       1.80426       0.13406       0.19978       0.05000      15.00000      75.00000      10.00000       0.00000       0.17168       0.45562       0.09000       0.00000       6.00000
AIp_20                            1                 C    1250.00000       0.50000       0.50000 null                                                                                                                                                                                                                          
                                                                                                                              1250.00000       1.43922       0.18635       0.27731       2.00000      15.00000      75.00000      10.00000       0.00000       0.15605       0.34793       0.09000       0.00000       6.00000
AIp_30                            1                 C    1250.00000       0.50000       0.50000 null                                                                                                                                                                                                                          
                                                                                                                              1250.00000       1.34578       0.20149       0.19314       3.00000      15.00000      75.00000      10.00000       0.00000       0.16041       0.34206       0.09000       0.00000       6.00000
AIp_40                            1                 C    1250.00000       0.50000       0.50000 null                                                                                                                                                                                                                          
                                                                                                                              1250.00000       1.26700       0.21670       0.29417       4.00000      15.00000      75.00000      10.00000       0.00000       0.15957       0.34184       0.09000       0.00000       6.00000
EDp_0                             1                 C    1250.00000       0.50000       0.50000 null                                                                                                                                                                                                                          
                                                                                                                              1250.00000       1.81926       0.11319       0.70623       0.05000      25.00000      40.00000      35.00000       0.00000       0.16445       0.32426       0.09000       0.00000       6.00000
EDp_20                            1                 C    1250.00000       0.50000       0.50000 null                                                                                                                                                                                                                          
                                                                                                                              1250.00000       1.52922       0.13999       2.79580       2.00000      25.00000      40.00000      35.00000       0.00000       0.15611       0.24762       0.09000       0.00000       6.00000
EDp_30                            1                 C    1250.00000       0.50000       0.50000 null                                                                                                                                                                                                                          
                                                                                                                              1250.00000       1.43578       0.15486       2.03899       3.00000      25.00000      40.00000      35.00000       0.00000       0.15586       0.24344       0.09000       0.00000       6.00000
EDp_40                            1                 C    1250.00000       0.50000       0.50000 null                                                                                                                                                                                                                          
                                                                                                                              1250.00000       1.35700       0.17335       1.22681       4.00000      25.00000      40.00000      35.00000       0.00000       0.15491       0.24328       0.09000       0.00000       6.00000
EIp_0                             1                 C    1250.00000       0.50000       0.50000 null                                                                                                                                                                                                                          
                                                                                                                              1250.00000       1.81926       0.11319       0.70623       0.05000      25.00000      40.00000      35.00000       0.00000       0.16445       0.32426       0.09000       0.00000       6.00000
EIp_20                            1                 C    1250.00000       0.50000       0.50000 null                                                                                                                                                                                                                          
                                                                                                                              1250.00000       1.52922       0.13999       2.79580       2.00000      25.00000      40.00000      35.00000       0.00000       0.15611       0.24762       0.09000       0.00000       6.00000
EIp_30                            1                 C    1250.00000       0.50000       0.50000 null                                                                                                                                                                                                                          
                                                                                                                              1250.00000       1.43578       0.15486       2.03899       3.00000      25.00000      40.00000      35.00000       0.00000       0.15586       0.24344       0.09000       0.00000       6.00000
EIp_40                            1                 C    1250.00000       0.50000       0.50000 null                                                                                                                                                                                                                          
                                                                                                                              1250.00000       1.35700       0.17335       1.22681       4.00000      25.00000      40.00000      35.00000       0.00000       0.15491       0.24328       0.09000       0.00000       6.00000
(G)bp_0                           1                 C    1250.00000       0.50000       0.50000 null                                                                                                                                                                                                                          
                                                                                                                              1250.00000       1.83926       0.10844       0.22220       0.05000      25.00000      60.00000      15.00000      10.00000       0.16331       0.41177       0.09000       0.00000       6.00000
(G)bp_20                          1                 C    1250.00000       0.50000       0.50000 null                                                                                                                                                                                                                          
                                                                                                                              1250.00000       1.52922       0.16421       0.20160       2.00000      25.00000      60.00000      15.00000      10.00000       0.15631       0.31444       0.09000       0.00000       6.00000
(G)bp_30                          1                 C    1250.00000       0.50000       0.50000 null                                                                                                                                                                                                                          
                                                                                                                              1250.00000       1.43578       0.18965       0.25004       3.00000      25.00000      60.00000      15.00000      10.00000       0.15797       0.30914       0.09000       0.00000       6.00000
(G)bp_40                          1                 C    1250.00000       0.50000       0.50000 null                                                                                                                                                                                                                          
                                                                                                                              1250.00000       1.35700       0.20393       0.22950       4.00000      25.00000      60.00000      15.00000      10.00000       0.15692       0.30894       0.09000       0.00000       6.00000
f2uGdb2_0                         3                 C     800.00000       0.50000       0.50000 null                                                                                                                                                                                                                          
                                                                                                                               400.00000       1.84926       0.11914       0.18885       0.05000      25.00000      70.00000       5.00000       5.00000       0.16399       0.44576       0.09000       0.00000       6.00000
                                                                                                                               600.00000       1.81926       0.11076       2.03429       0.05000      25.00000      68.00000       7.00000      10.00000       0.16453       0.32426       0.09000       0.00000       6.00000
                                                                                                                               800.00000       1.81926       0.11399       0.23822       0.05000      26.50000      69.50000       4.00000      15.00000       0.16471       0.32426       0.09000       0.00000       6.00000
f2uGdb2_20                        3                 C     800.00000       0.50000       0.50000 null                                                                                                                                                                                                                          
                                                                                                                               400.00000       1.52922       0.15698       0.86630       2.00000      25.00000      70.00000       5.00000       5.00000       0.15558       0.34040       0.09000       0.00000       6.00000
                                                                                                                               600.00000       1.81926       0.11076       2.03429       0.05000      25.00000      68.00000       7.00000      10.00000       0.16453       0.32426       0.09000       0.00000       6.00000
                                                                                                                               800.00000       1.81926       0.11399       0.23822       0.05000      26.50000      69.50000       4.00000      15.00000       0.16471       0.32426       0.09000       0.00000       6.00000
f2uGdb2_30                        3                 C     800.00000       0.50000       0.50000 null                                                                                                                                                                                                                          
                                                                                                                               400.00000       1.43578       0.17985       0.05640       3.00000      25.00000      70.00000       5.00000       5.00000       0.16189       0.33466       0.09000       0.00000       6.00000
                                                                                                                               600.00000       1.81926       0.11076       2.03429       0.05000      25.00000      68.00000       7.00000      10.00000       0.16453       0.32426       0.09000       0.00000       6.00000
                                                                                                                               800.00000       1.81926       0.11399       0.23822       0.05000      26.50000      69.50000       4.00000      15.00000       0.16471       0.32426       0.09000       0.00000       6.00000
f2uGdb2_40                        3                 C     800.00000       0.50000       0.50000 null                                                                                                                                                                                                                          
                                                                                                                               400.00000       1.35700       0.19326       0.06674       4.00000      25.00000      70.00000       5.00000       5.00000       0.16278       0.33445       0.09000       0.00000       6.00000
                                                                                                                               600.00000       1.81926       0.11076       2.03429       0.05000      25.00000      68.00000       7.00000      10.00000       0.16453       0.32426       0.09000       0.00000       6.00000
                                                                                                                               800.00000       1.81926       0.11399       0.23822       0.05000      26.50000      69.50000       4.00000      15.00000       0.16471       0.32426       0.09000       0.00000       6.00000
Gbbfi2_0                          1                 C     600.00000       0.50000       0.50000 null                                                                                                                                                                                                                          
                                                                                                                               600.00000       1.82926       0.11366       1.87219       0.05000      25.00000      60.00000      15.00000      15.00000       0.16463       0.36986       0.09000       0.00000       6.00000
Gbbfi2_20                         1                 C     600.00000       0.50000       0.50000 null                                                                                                                                                                                                                          
                                                                                                                               600.00000       1.52922       0.17925       2.24008       2.00000      25.00000      60.00000      15.00000      15.00000       0.15628       0.28244       0.09000       0.00000       6.00000
Gbbfi2_30                         1                 C     600.00000       0.50000       0.50000 null                                                                                                                                                                                                                          
                                                                                                                               600.00000       1.43578       0.21179       1.14921       3.00000      25.00000      60.00000      15.00000      15.00000       0.15691       0.27767       0.09000       0.00000       6.00000
Gbbfi2_40                         1                 C     600.00000       0.50000       0.50000 null                                                                                                                                                                                                                          
                                                                                                                               600.00000       1.35700       0.21575       0.80524       4.00000      25.00000      60.00000      15.00000      15.00000       0.15607       0.27750       0.09000       0.00000       6.00000
Gbbr2_0                           1                 C     600.00000       0.50000       0.50000 null                                                                                                                                                                                                                          
                                                                                                                               600.00000       1.82926       0.10827       1.87219       0.05000      25.00000      50.00000      25.00000      15.00000       0.16463       0.36986       0.09000       0.00000       6.00000
Gbbr2_20                          1                 C     600.00000       0.50000       0.50000 null                                                                                                                                                                                                                          
                                                                                                                               600.00000       1.52922       0.12927       2.24008       2.00000      25.00000      50.00000      25.00000      15.00000       0.15628       0.28244       0.09000       0.00000       6.00000
Gbbr2_30                          1                 C     600.00000       0.50000       0.50000 null                                                                                                                                                                                                                          
                                                                                                                               600.00000       1.43578       0.17201       1.14921       3.00000      25.00000      50.00000      25.00000      15.00000       0.15691       0.27767       0.09000       0.00000       6.00000
Gbbr2_40                          1                 C     600.00000       0.50000       0.50000 null                                                                                                                                                                                                                          
                                                                                                                               600.00000       1.35700       0.18731       0.80524       4.00000      25.00000      50.00000      25.00000      15.00000       0.15607       0.27750       0.09000       0.00000       6.00000
Gdbr2_0                           1                 C     600.00000       0.50000       0.50000 null                                                                                                                                                                                                                          
                                                                                                                               600.00000       1.82926       0.10827       1.87219       0.05000      25.00000      50.00000      25.00000      15.00000       0.16463       0.36986       0.09000       0.00000       6.00000
Gdbr2_20                          1                 C     600.00000       0.50000       0.50000 null                                                                                                                                                                                                                          
                                                                                                                               600.00000       1.52922       0.12927       2.24008       2.00000      25.00000      50.00000      25.00000      15.00000       0.15628       0.28244       0.09000       0.00000       6.00000
Gdbr2_30                          1                 C     600.00000       0.50000       0.50000 null                                                                                                                                                                                                                          
                                                                                                                               600.00000       1.43578       0.17201       1.14921       3.00000      25.00000      50.00000      25.00000      15.00000       0.15691       0.27767       0.09000       0.00000       6.00000
Gdbr2_40                          1                 C     600.00000       0.50000       0.50000 null                                                                                                                                                                                                                          
                                                                                                                               600.00000       1.35700       0.18731       0.80524       4.00000      25.00000      50.00000      25.00000      15.00000       0.15607       0.27750       0.09000       0.00000       6.00000
Gbbf2_0                           1                 C     600.00000       0.50000       0.50000 null                                                                                                                                                                                                                          
                                                                                                                               600.00000       1.81926       0.11547       1.75195       0.05000      25.00000      60.00000      15.00000      15.00000       0.16647       0.32426       0.09000       0.00000       6.00000