topography.hyd: written by SWAT+ editor v2.1.0 on 2023-09-11 10:25 for SWAT+ rev.60.5.4
name                       slp       slp_len       lat_len      dist_cha         depos  
topohru0001            0.16184      30.00000      30.00000     121.00000       0.00000  
topohru0002            0.10518      30.00000      30.00000     121.00000       0.00000  
topohru0003            0.05082      30.00000      30.00000     121.00000       0.00000  
topohru0004            0.18153      30.00000      30.00000     121.00000       0.00000  
topohru0005            0.26253      30.00000      30.00000     121.00000       0.00000  
topohru0006            0.07328      30.00000      30.00000     121.00000       0.00000  
topohru0007            0.06707      30.00000      30.00000     121.00000       0.00000  
topohru0008            0.02560      30.00000      30.00000     121.00000       0.00000  
topohru0009            0.09061      30.00000      30.00000     121.00000       0.00000  
topohru0010            0.10533      30.00000      30.00000     121.00000       0.00000  
topohru0011            0.05687      30.00000      30.00000     121.00000       0.00000  
topohru0012            0.06614      30.00000      30.00000     121.00000       0.00000  
topohru0013            0.06752      30.00000      30.00000     121.00000       0.00000  
topohru0014            0.06831      30.00000      30.00000     121.00000       0.00000  
topohru0015            0.08526      30.00000      30.00000     121.00000       0.00000  
topohru0016            0.05459      30.00000      30.00000     121.00000       0.00000  
topohru0017            0.08545      30.00000      30.00000     121.00000       0.00000  
topohru0018            0.04894      30.00000      30.00000     121.00000       0.00000  
topohru0019            0.14134      30.00000      30.00000     121.00000       0.00000  
topohru0020            0.03746      30.00000      30.00000     121.00000       0.00000  
topohru0021            0.07788      30.00000      30.00000     121.00000       0.00000  
topohru0022            0.13438      30.00000      30.00000     121.00000       0.00000  
topohru0023            0.17258      30.00000      30.00000     121.00000       0.00000  
topohru0024            0.08393      30.00000      30.00000     121.00000       0.00000  
topohru0025            0.10281      30.00000      30.00000     121.00000       0.00000  
topohru0026            0.13624      30.00000      30.00000     121.00000       0.00000  
topohru0027            0.04467      30.00000      30.00000     121.00000       0.00000  
topohru0028            0.08906      30.00000      30.00000     121.00000       0.00000  
topohru0029            0.10769      30.00000      30.00000     121.00000       0.00000  
topohru0030            0.11703      30.00000      30.00000     121.00000       0.00000  
topohru0031            0.16925      30.00000      30.00000     121.00000       0.00000  
topohru0032            0.11035      30.00000      30.00000     121.00000       0.00000  
topohru0033            0.42396      30.00000      30.00000     121.00000       0.00000  
topohru0034            0.07005      30.00000      30.00000     121.00000       0.00000  
topohru0035            0.07023      30.00000      30.00000     121.00000       0.00000  
topohru0036            0.06113      30.00000      30.00000     121.00000       0.00000  
topohru0037            0.05784      30.00000      30.00000     121.00000       0.00000  
topohru0038            0.07907      30.00000      30.00000     121.00000       0.00000  
topohru0039            0.09828      30.00000      30.00000     121.00000       0.00000  
topohru0040            0.08230      30.00000      30.00000     121.00000       0.00000  
topohru0041            0.02329      30.00000      30.00000     121.00000       0.00000  
topohru0042            0.01747      30.00000      30.00000     121.00000       0.00000  
topohru0043            0.09036      30.00000      30.00000     121.00000       0.00000  
topohru0044            0.03369      30.00000      30.00000     121.00000       0.00000  
topohru0045            0.02240      30.00000      30.00000     121.00000       0.00000  
topohru0046            0.02344      30.00000      30.00000     121.00000       0.00000  
topohru0047            0.01355      30.00000      30.00000     121.00000       0.00000  
topohru0048            0.01657      30.00000      30.00000     121.00000       0.00000  
topohru0049            0.02181      30.00000      30.00000     121.00000       0.00000  
topohru0050            0.02229      30.00000      30.00000     121.00000       0.00000  
topohru0051            0.04335      30.00000      30.00000     121.00000       0.00000  
topohru0052            0.02002      30.00000      30.00000     121.00000       0.00000  
topohru0053            0.02499      30.00000      30.00000     121.00000       0.00000  
topohru0054            0.11462      30.00000      30.00000     121.00000       0.00000  
topohru0055            0.11241      30.00000      30.00000     121.00000       0.00000  
topohru0056            0.02052      30.00000      30.00000     121.00000       0.00000  
topohru0057            0.04876      30.00000      30.00000     121.00000       0.00000  
topohru0058            0.21157      30.00000      30.00000     121.00000       0.00000  
topohru0059            0.11772      30.00000      30.00000     121.00000       0.00000  
topohru0060            0.05361      30.00000      30.00000     121.00000       0.00000  
topohru0061            0.06051      30.00000      30.00000     121.00000       0.00000  
topohru0062            0.16599      30.00000      30.00000     121.00000       0.00000  
topohru0063            0.03490      30.00000      30.00000     121.00000       0.00000  
topohru0064            0.05213      30.00000      30.00000     121.00000       0.00000  
topohru0065            0.08896      30.00000      30.00000     121.00000       0.00000  
topohru0066            0.11435      30.00000      30.00000     121.00000       0.00000  
topohru0067            0.05054      30.00000      30.00000     121.00000       0.00000  
topohru0068            0.04878      30.00000      30.00000     121.00000       0.00000  
topohru0069            0.03432      30.00000      30.00000     121.00000       0.00000  
topohru0070            0.10634      30.00000      30.00000     121.00000       0.00000  
topohru0071            0.17221      30.00000      30.00000     121.00000       0.00000  
topohru0072            0.03959      30.00000      30.00000     121.00000       0.00000  
topohru0073            0.05039      30.00000      30.00000     121.00000       0.00000  
topohru0074            0.02476      30.00000      30.00000     121.00000       0.00000  
topohru0075            0.04978      30.00000      30.00000     121.00000       0.00000  
topohru0076            0.08754      30.00000      30.00000     121.00000       0.00000  
topohru0077            0.03709      30.00000      30.00000     121.00000       0.00000  
topohru0078            0.03689      30.00000      30.00000     121.00000       0.00000  
topohru0079            0.08240      30.00000      30.00000     121.00000       0.00000  
topohru0080            0.10303      30.00000      30.00000     121.00000       0.00000  
topohru0081            0.05163      30.00000      30.00000     121.00000       0.00000  
topohru0082            0.09292      30.00000      30.00000     121.00000       0.00000  
topohru0083            0.08506      30.00000      30.00000     121.00000       0.00000  
topohru0084            0.05009      30.00000      30.00000     121.00000       0.00000  
topohru0085            0.04614      30.00000      30.00000     121.00000       0.00000  
topohru0086            0.08057      30.00000      30.00000     121.00000       0.00000  
topohru0087            0.09564      30.00000      30.00000     121.00000       0.00000  
topohru0088            0.12760      30.00000      30.00000     121.00000       0.00000  
topohru0089            0.16800      30.00000      30.00000     121.00000       0.00000  
topohru0090            0.15176      30.00000      30.00000     121.00000       0.00000  
topohru0091            0.19546      30.00000      30.00000     121.00000       0.00000  
topohru0092            0.21294      30.00000      30.00000     121.00000       0.00000  
topohru0093            0.15341      30.00000      30.00000     121.00000       0.00000  
topohru0094            0.18927      30.00000      30.00000     121.00000       0.00000  
topohru0095            0.19175      30.00000      30.00000     121.00000       0.00000  
topohru0096            0.18070      30.00000      30.00000     121.00000       0.00000  
topohru0097            0.10610      30.00000      30.00000     121.00000       0.00000  
topohru0098            0.07963      30.00000      30.00000     121.00000       0.00000  
topohru0099            0.42179      30.00000      30.00000     121.00000       0.00000  
topohru0100            0.15324      30.00000      30.00000     121.00000       0.00000  
topohru0101            0.15823      30.00000      30.00000     121.00000       0.00000  
topohru0102            0.02460      30.00000      30.00000     121.00000       0.00000  
topohru0103            0.09805      30.00000      30.00000     121.00000       0.00000  
topohru0104            0.11252      30.00000      30.00000     121.00000       0.00000  
topohru0105            0.15857      30.00000      30.00000     121.00000       0.00000  
topohru0106            0.16567      30.00000      30.00000     121.00000       0.00000  
topohru0107            0.04622      30.00000      30.00000     121.00000       0.00000  
topohru0108            0.02098      30.00000      30.00000     121.00000       0.00000  
topohru0109            0.13264      30.00000      30.00000     121.00000       0.00000  
topohru0110            0.11474      30.00000      30.00000     121.00000       0.00000  
topohru0111            0.13989      30.00000      30.00000     121.00000       0.00000  
topohru0112            0.13967      30.00000      30.00000     121.00000       0.00000  
topohru0113            0.16480      30.00000      30.00000     121.00000       0.00000  
topohru0114            0.14688      30.00000      30.00000     121.00000       0.00000  
topohru0115            0.08509      30.00000      30.00000     121.00000       0.00000  
topohru0116            0.03646      30.00000      30.00000     121.00000       0.00000  
topohru0117            0.15904      30.00000      30.00000     121.00000       0.00000  
topohru0118            0.07597      30.00000      30.00000     121.00000       0.00000  
topohru0119            0.09693      30.00000      30.00000     121.00000       0.00000  
topohru0120            0.05996      30.00000      30.00000     121.00000       0.00000  
topohru0121            0.04268      30.00000      30.00000     121.00000       0.00000  
topohru0122            0.07680      30.00000      30.00000     121.00000       0.00000  
topohru0123            0.03715      30.00000      30.00000     121.00000       0.00000  
topohru0124            0.18519      30.00000      30.00000     121.00000       0.00000  
topohru0125            0.18200      30.00000      30.00000     121.00000       0.00000  
topohru0126            0.07347      30.00000      30.00000     121.00000       0.00000  
topohru0127            0.11047      30.00000      30.00000     121.00000       0.00000  
topohru0128            0.05368      30.00000      30.00000     121.00000       0.00000  
topohru0129            0.11105      30.00000      30.00000     121.00000       0.00000  
topohru0130            0.15347      30.00000      30.00000     121.00000       0.00000  
topohru0131            0.09806      30.00000      30.00000     121.00000       0.00000  
topohru0132            0.13603      30.00000      30.00000     121.00000       0.00000  
topohru0133            0.05484      30.00000      30.00000     121.00000       0.00000  
topohru0134            0.13932      30.00000      30.00000     121.00000       0.00000  
topohru0135            0.08233      30.00000      30.00000     121.00000       0.00000  
topohru0136            0.07679      30.00000      30.00000     121.00000       0.00000  
topohru0137            0.03645      30.00000      30.00000     121.00000       0.00000  
topohru0138            0.06213      30.00000      30.00000     121.00000       0.00000  
topohru0139            0.11616      30.00000      30.00000     121.00000       0.00000  
topohru0140            0.10602      30.00000      30.00000     121.00000       0.00000  
topohru0141            0.08192      30.00000      30.00000     121.00000       0.00000  
topohru0142            0.13145      30.00000      30.00000     121.00000       0.00000  
topohru0143            0.03843      30.00000      30.00000     121.00000       0.00000  
topohru0144            0.03003      30.00000      30.00000     121.00000       0.00000  
topohru0145            0.02296      30.00000      30.00000     121.00000       0.00000  
topohru0146            0.03281      30.00000      30.00000     121.00000       0.00000  
topohru0147            0.03752      30.00000      30.00000     121.00000       0.00000  
topohru0148            0.02947      30.00000      30.00000     121.00000       0.00000  
topohru0149            0.04546      30.00000      30.00000     121.00000       0.00000  
topohru0150            0.04643      30.00000      30.00000     121.00000       0.00000  
topohru0151            0.05235      30.00000      30.00000     121.00000       0.00000  
topohru0152            0.04029      30.00000      30.00000     121.00000       0.00000  
topohru0153            0.09776      30.00000      30.00000     121.00000       0.00000  
topohru0154            0.07827      30.00000      30.00000     121.00000       0.00000  
topohru0155            0.14405      30.00000      30.00000     121.00000       0.00000  
topohru0156            0.07327      30.00000      30.00000     121.00000       0.00000  
topohru0157            0.04364      30.00000      30.00000     121.00000       0.00000  
topohru0158            0.03583      30.00000      30.00000     121.00000       0.00000  
topohru0159            0.05122      30.00000      30.00000     121.00000       0.00000  
topohru0160            0.02676      30.00000      30.00000     121.00000       0.00000  
topohru0161            0.02887      30.00000      30.00000     121.00000       0.00000  
topohru0162            0.07516      30.00000      30.00000     121.00000       0.00000  
topohru0163            0.07726      30.00000      30.00000     121.00000       0.00000  
topohru0164            0.03258      30.00000      30.00000     121.00000       0.00000  
topohru0165            0.05188      30.00000      30.00000     121.00000       0.00000  
topohru0166            0.03495      30.00000      30.00000     121.00000       0.00000  
topohru0167            0.04735      30.00000      30.00000     121.00000       0.00000  
topohru0168            0.04192      30.00000      30.00000     121.00000       0.00000  
topohru0169            0.04942      30.00000      30.00000     121.00000       0.00000  
topohru0170            0.02455      30.00000      30.00000     121.00000       0.00000  
topohru0171            0.01926      30.00000      30.00000     121.00000       0.00000  
topohru0172            0.02156      30.00000      30.00000     121.00000       0.00000  
topohru0173            0.05535      30.00000      30.00000     121.00000       0.00000  
topohru0174            0.09307      30.00000      30.00000     121.00000       0.00000  
topohru0175            0.12976      30.00000      30.00000     121.00000       0.00000  
topohru0176            0.05099      30.00000      30.00000     121.00000       0.00000  
topohru0177            0.08109      30.00000      30.00000     121.00000       0.00000  
topohru0178            0.04508      30.00000      30.00000     121.00000       0.00000  
topohru0179            0.03955      30.00000      30.00000     121.00000       0.00000  
topohru0180            0.14292      30.00000      30.00000     121.00000       0.00000  
topohru0181            0.06351      30.00000      30.00000     121.00000       0.00000  
topohru0182            0.05683      30.00000      30.00000     121.00000       0.00000  
topohru0183            0.05454      30.00000      30.00000     121.00000       0.00000  
topohru0184            0.10428      30.00000      30.00000     121.00000       0.00000  
topohru0185            0.04319      30.00000      30.00000     121.00000       0.00000  
topohru0186            0.02668      30.00000      30.00000     121.00000       0.00000  
topohru0187            0.06247      30.00000      30.00000     121.00000       0.00000  
topohru0188            0.03701      30.00000      30.00000     121.00000       0.00000  
topohru0189            0.03665      30.00000      30.00000     121.00000       0.00000  
topohru0190            0.09563      30.00000      30.00000     121.00000       0.00000  
topohru0191            0.08705      30.00000      30.00000     121.00000       0.00000  
topohru0192            0.07984      30.00000      30.00000     121.00000       0.00000  
topohru0193            0.05126      30.00000      30.00000     121.00000       0.00000  
topohru0194            0.06265      30.00000      30.00000     121.00000       0.00000  
topohru0195            0.04273      30.00000      30.00000     121.00000       0.00000  
topohru0196            0.09635      30.00000      30.00000     121.00000       0.00000  
topohru0197            0.04321      30.00000      30.00000     121.00000       0.00000  
topohru0198            0.05600      30.00000      30.00000     121.00000       0.00000  
topohru0199            0.14113      30.00000      30.00000     121.00000       0.00000  
topohru0200            0.09748      30.00000      30.00000     121.00000       0.00000  
topohru0201            0.11389      30.00000      30.00000     121.00000       0.00000  
topohru0202            0.14101      30.00000      30.00000     121.00000       0.00000  
topohru0203            0.09851      30.00000      30.00000     121.00000       0.00000  
topohru0204            0.06622      30.00000      30.00000     121.00000       0.00000  
topohru0205            0.07332      30.00000      30.00000     121.00000       0.00000  
topohru0206            0.09940      30.00000      30.00000     121.00000       0.00000  
topohru0207            0.06448      30.00000      30.00000     121.00000       0.00000  
topohru0208            0.09671      30.00000      30.00000     121.00000       0.00000  
topohru0209            0.14372      30.00000      30.00000     121.00000       0.00000  
topohru0210            0.11764      30.00000      30.00000     121.00000       0.00000  
topohru0211            0.12690      30.00000      30.00000     121.00000       0.00000  
topohru0212            0.14313      30.00000      30.00000     121.00000       0.00000  
topohru0213            0.10690      30.00000      30.00000     121.00000       0.00000  
topohru0214            0.09473      30.00000      30.00000     121.00000       0.00000  
topohru0215            0.06690      30.00000      30.00000     121.00000       0.00000  
topohru0216            0.02756      30.00000      30.00000     121.00000       0.00000  
topohru0217            0.07211      30.00000      30.00000     121.00000       0.00000  
topohru0218            0.02740      30.00000      30.00000     121.00000       0.00000  
topohru0219            0.03144      30.00000      30.00000     121.00000       0.00000  
topohru0220            0.05272      30.00000      30.00000     121.00000       0.00000  
topohru0221            0.05717      30.00000      30.00000     121.00000       0.00000  
topohru0222            0.03891      30.00000      30.00000     121.00000       0.00000  
topohru0223            0.03988      30.00000      30.00000     121.00000       0.00000  
topohru0224            0.01740      30.00000      30.00000     121.00000       0.00000  
topohru0225            0.10203      30.00000      30.00000     121.00000       0.00000  
topohru0226            0.05312      30.00000      30.00000     121.00000       0.00000  
topohru0227            0.14945      30.00000      30.00000     121.00000       0.00000  
topohru0228            0.05266      30.00000      30.00000     121.00000       0.00000  
topohru0229            0.08298      30.00000      30.00000     121.00000       0.00000  
topohru0230            0.03601      30.00000      30.00000     121.00000       0.00000  
topohru0231            0.13227      30.00000      30.00000     121.00000       0.00000  
topohru0232            0.09729      30.00000      30.00000     121.00000       0.00000  
topohru0233            0.06706      30.00000      30.00000     121.00000       0.00000  
topohru0234            0.02671      30.00000      30.00000     121.00000       0.00000  
topohru0235            0.15402      30.00000      30.00000     121.00000       0.00000  
topohru0236            0.08897      30.00000      30.00000     121.00000       0.00000  
topohru0237            0.13507      30.00000      30.00000     121.00000       0.00000  
topohru0238            0.09055      30.00000      30.00000     121.00000       0.00000  
topohru0239            0.01943      30.00000      30.00000     121.00000       0.00000  
topohru0240            0.09612      30.00000      30.00000     121.00000       0.00000  
topohru0241            0.03205      30.00000      30.00000     121.00000       0.00000  
topohru0242            0.04875      30.00000      30.00000     121.00000       0.00000  
topohru0243            0.04785      30.00000      30.00000     121.00000       0.00000  
topohru0244            0.08107      30.00000      30.00000     121.00000       0.00000  
topohru0245            0.08168      30.00000      30.00000     121.00000       0.00000  
topohru0246            0.12487      30.00000      30.00000     121.00000       0.00000  
topohru0247            0.06654      30.00000      30.00000     121.00000       0.00000  
topohru0248            0.10260      30.00000      30.00000     121.00000       0.00000  
topohru0249            0.29594      30.00000      30.00000     121.00000       0.00000  
topohru0250            0.04303      30.00000      30.00000     121.00000       0.00000  
topohru0251            0.04818      30.00000      30.00000     121.00000       0.00000  
topohru0252            0.12717      30.00000      30.00000     121.00000       0.00000  
topohru0253            0.12576      30.00000      30.00000     121.00000       0.00000  
topohru0254            0.17216      30.00000      30.00000     121.00000       0.00000  
topohru0255            0.07908      30.00000      30.00000     121.00000       0.00000  
topohru0256            0.12583      30.00000      30.00000     121.00000       0.00000  
topohru0257            0.14090      30.00000      30.00000     121.00000       0.00000  
topohru0258            0.04336      30.00000      30.00000     121.00000       0.00000  
topohru0259            0.02138      30.00000      30.00000     121.00000       0.00000  
topohru0260            0.05023      30.00000      30.00000     121.00000       0.00000  
topohru0261            0.06304      30.00000      30.00000     121.00000       0.00000  
topohru0262            0.04913      30.00000      30.00000     121.00000       0.00000  
topohru0263            0.03317      30.00000      30.00000     121.00000       0.00000  
topohru0264            0.03771      30.00000      30.00000     121.00000       0.00000  
topohru0265            0.03908      30.00000      30.00000     121.00000       0.00000  
topohru0266            0.09256      30.00000      30.00000     121.00000       0.00000  
topohru0267            0.07263      30.00000      30.00000     121.00000       0.00000  
topohru0268            0.04302      30.00000      30.00000     121.00000       0.00000  
topohru0269            0.07779      30.00000      30.00000     121.00000       0.00000  
topohru0270            0.06750      30.00000      30.00000     121.00000       0.00000  
topohru0271            0.14741      30.00000      30.00000     121.00000       0.00000  
topohru0272            0.09549      30.00000      30.00000     121.00000       0.00000  
topohru0273            0.07356      30.00000      30.00000     121.00000       0.00000  
topohru0274            0.06136      30.00000      30.00000     121.00000       0.00000  
topohru0275            0.05695      30.00000      30.00000     121.00000       0.00000  
topohru0276            0.05999      30.00000      30.00000     121.00000       0.00000  
topohru0277            0.07239      30.00000      30.00000     121.00000       0.00000  
topohru0278            0.03924      30.00000      30.00000     121.00000       0.00000  
topohru0279            0.06296      30.00000      30.00000     121.00000       0.00000  
topohru0280            0.06911      30.00000      30.00000     121.00000       0.00000  
topohru0281            0.04763      30.00000      30.00000     121.00000       0.00000  
topohru0282            0.04417      30.00000      30.00000     121.00000       0.00000  
topohru0283            0.08762      30.00000      30.00000     121.00000       0.00000  
topohru0284            0.05832      30.00000      30.00000     121.00000       0.00000  
topohru0285            0.05268      30.00000      30.00000     121.00000       0.00000  
topohru0286            0.08843      30.00000      30.00000     121.00000       0.00000  
topohru0287            0.05680      30.00000      30.00000     121.00000       0.00000  
topohru0288            0.05731      30.00000      30.00000     121.00000       0.00000  
topohru0289            0.04083      30.00000      30.00000     121.00000       0.00000  
topohru0290            0.04565      30.00000      30.00000     121.00000       0.00000  
topohru0291            0.02789      30.00000      30.00000     121.00000       0.00000  
topohru0292            0.10405      30.00000      30.00000     121.00000       0.00000  
topohru0293            0.07222      30.00000      30.00000     121.00000       0.00000  
topohru0294            0.10550      30.00000      30.00000     121.00000       0.00000  
topohru0295            0.22537      30.00000      30.00000     121.00000       0.00000  
topohru0296            0.07088      30.00000      30.00000     121.00000       0.00000  
topohru0297            0.15940      30.00000      30.00000     121.00000       0.00000  
topohru0298            0.08212      30.00000      30.00000     121.00000       0.00000  
topohru0299            0.08214      30.00000      30.00000     121.00000       0.00000  
topohru0300            0.08287      30.00000      30.00000     121.00000       0.00000  
topohru0301            0.06619      30.00000      30.00000     121.00000       0.00000  
topohru0302            0.05736      30.00000      30.00000     121.00000       0.00000  
topohru0303            0.05545      30.00000      30.00000     121.00000       0.00000  
topohru0304            0.08510      30.00000      30.00000     121.00000       0.00000  
topohru0305            0.06288      30.00000      30.00000     121.00000       0.00000  
topohru0306            0.03019      30.00000      30.00000     121.00000       0.00000  
topohru0307            0.08184      30.00000      30.00000     121.00000       0.00000  
topohru0308            0.03865      30.00000      30.00000     121.00000       0.00000  
topohru0309            0.06075      30.00000      30.00000     121.00000       0.00000  
topohru0310            0.07844      30.00000      30.00000     121.00000       0.00000  
topohru0311            0.05474      30.00000      30.00000     121.00000       0.00000  
topohru0312            0.08623      30.00000      30.00000     121.00000       0.00000  
topohru0313            0.07097      30.00000      30.00000     121.00000       0.00000  
topohru0314            0.08379      30.00000      30.00000     121.00000       0.00000  
topohru0315            0.11259      30.00000      30.00000     121.00000       0.00000  
topohru0316            0.10863      30.00000      30.00000     121.00000       0.00000  
topohru0317            0.02478      30.00000      30.00000     121.00000       0.00000  
topohru0318            0.09065      30.00000      30.00000     121.00000       0.00000  
topohru0319            0.05312      30.00000      30.00000     121.00000       0.00000  
topohru0320            0.09523      30.00000      30.00000     121.00000       0.00000  
topohru0321            0.10764      30.00000      30.00000     121.00000       0.00000  
topohru0322            0.06727      30.00000      30.00000     121.00000       0.00000  
topohru0323            0.08907      30.00000      30.00000     121.00000       0.00000  
topohru0324            0.07686      30.00000      30.00000     121.00000       0.00000  
topohru0325            0.07202      30.00000      30.00000     121.00000       0.00000  
topohru0326            0.18242      30.00000      30.00000     121.00000       0.00000  
topohru0327            0.04523      30.00000      30.00000     121.00000       0.00000  
topohru0328            0.04234      30.00000      30.00000     121.00000       0.00000  
topohru0329            0.15539      30.00000      30.00000     121.00000       0.00000  
topohru0330            0.12231      30.00000      30.00000     121.00000       0.00000  
topohru0331            0.15941      30.00000      30.00000     121.00000       0.00000  
topohru0332            0.05716      30.00000      30.00000     121.00000       0.00000  
topohru0333            0.06017      30.00000      30.00000     121.00000       0.00000  
topohru0334            0.07126      30.00000      30.00000     121.00000       0.00000  
topohru0335            0.07745      30.00000      30.00000     121.00000       0.00000  