weather-wgn.cli: written by SWAT+ editor v2.1.0 on 2023-09-11 10:25 for SWAT+ rev.60.5.4
Beauraing                      50.11000       4.95000     190.80000        20  
 tmp_max_ave   tmp_min_ave    tmp_max_sd    tmp_min_sd       pcp_ave        pcp_sd      pcp_skew       wet_dry       wet_wet      pcp_days       pcp_hhr       slr_ave       dew_ave       wnd_ave  
     4.48435       0.31274       3.87911       4.27200       2.43937       4.15661       2.57254       0.67857       0.80000      24.00000       9.99184       2.38268       0.89378       4.49839  
     5.72920       0.55381       4.57774       4.27297       2.38726       4.21838       2.66247       0.47191       0.78036      19.35000      10.71368       4.95035       0.83971       4.41416  
     9.48323       2.32597       4.63391       3.61329       1.95289       3.74543       2.95386       0.47826       0.76029      20.65000      12.42331       9.34963       0.77065       4.13387  
    13.77617       4.84983       4.86113       3.66139       1.47700       3.32899       3.70593       0.34471       0.67101      15.35000      10.75167      14.67482       0.70455       3.38967  
    16.75871       7.94516       4.41718       3.34149       2.13532       4.42889       3.62449       0.38129       0.68713      17.10000      14.55085      16.84345       0.74243       3.32452  
    20.36650      11.43150       4.35240       2.93841       2.10983       4.41037       3.00167       0.32886       0.67550      15.10000      11.73946      18.63100       0.74929       3.09350  
    22.21355      13.32597       4.34451       2.71707       2.39435       6.34455       5.68190       0.34202       0.66134      15.65000      27.35408      17.69527       0.73484       3.09371  
    21.59629      13.01000       4.26955       2.65458       2.45058       5.45092       4.02965       0.43404       0.73247      19.25000      18.31204      14.51144       0.77003       2.99855  
    18.62017      10.26550       3.96716       2.96418       1.58203       4.04741       4.49134       0.45339       0.70330      18.20000      14.17094      11.92672       0.79893       2.96583  
    13.83048       7.36581       3.87573       3.70032       2.13134       4.08649       2.84145       0.53158       0.76512      21.50000       9.95385       6.38907       0.85830       3.62145  
     8.76333       3.94750       3.63899       3.57945       2.11800       3.79146       3.25720       0.58278       0.80178      22.45000      12.08139       2.94447       0.90028       3.86517  
     5.50274       1.36928       3.64107       3.87812       2.75361       4.56228       2.75530       0.63014       0.80380      23.70000      14.66483       1.91881       0.90538       4.34852  
Buzenol                        49.65000       5.59000     324.00000        20  
 tmp_max_ave   tmp_min_ave    tmp_max_sd    tmp_min_sd       pcp_ave        pcp_sd      pcp_skew       wet_dry       wet_wet      pcp_days       pcp_hhr       slr_ave       dew_ave       wnd_ave  
     4.13468      -1.76758       3.94484       6.01936       3.85226       6.04863       2.48994       0.42391       0.81881      21.80000      16.33647       2.39448       0.89479       2.68339  
     5.62531      -1.90867       4.53826       5.96075       3.23434       5.94167       2.95384       0.38318       0.76353      17.55000      16.56442       4.98085       0.84024       2.80796  
     9.89194       0.61645       4.76163       3.80747       2.36129       4.76374       3.34643       0.35338       0.73164      17.70000      13.98098       9.55471       0.76946       2.77097  
    14.54483       2.78900       4.88127       3.79305       1.64550       3.65519       3.10778       0.26687       0.68248      13.70000      11.01762      15.05724       0.70822       2.57100  
    17.46371       5.45919       4.40942       5.96466       2.86161       5.79016       3.60393       0.38163       0.67656      16.85000      20.05966      17.00503       0.76161       2.19919  
    21.43867       9.81783       4.32638       3.72483       2.62367       5.66489       3.53802       0.28525       0.70508      14.75000      21.04745      18.96436       0.76354       1.90500  
    23.37629      11.50871       4.50673       2.88780       2.56323       5.90932       4.29575       0.33542       0.64120      15.05000      23.06101      18.35227       0.75271       1.84145  
    22.46145      11.13613       4.50320       2.99636       2.93452       6.00937       2.83356       0.45000       0.67222      18.00000      13.10717      15.14061       0.79020       1.92806  
    19.10750       7.97500       4.02925       3.39252       2.10383       4.88018       3.56349       0.33216       0.70347      15.85000      14.93077      11.58735       0.81717       1.98983  
    13.79290       5.13645       4.00370       4.97699       2.73435       5.12803       2.51933       0.42254       0.77641      20.35000      11.39754       6.10321       0.86998       2.11548  
     8.44183       2.27167       3.81626       4.51340       3.07383       5.41427       3.02183       0.46114       0.77887      20.35000      17.85614       2.80903       0.90550       2.26150  
     5.14403      -0.62773       3.72772       6.26587       4.30274       6.95570       2.51256       0.39106       0.83900      22.05000      18.42602       1.90622       0.90951       2.51303  
Daverdisse                     50.04000       5.13000     211.00000        20  
 tmp_max_ave   tmp_min_ave    tmp_max_sd    tmp_min_sd       pcp_ave        pcp_sd      pcp_skew       wet_dry       wet_wet      pcp_days       pcp_hhr       slr_ave       dew_ave       wnd_ave  
     4.48435       0.31274       3.87911       4.27200       3.70923       6.25589       3.22529       0.61240       0.83707      24.55000      22.83306       2.38268       0.89378       4.49839  
     5.72920       0.55381       4.57774       4.27297       3.48531       6.02858       2.68417       0.46795       0.81907      20.45000      15.27270       4.95035       0.83971       4.41416  
     9.48323       2.32597       4.63391       3.61329       2.46929       4.47306       2.48925       0.44330       0.79577      21.30000      10.97963       9.34963       0.77065       4.13387  
    13.77617       4.84983       4.86113       3.66139       1.71787       3.68867       3.34270       0.32877       0.68831      15.40000      12.46131      14.67482       0.70455       3.38967  
    16.75871       7.94516       4.41718       3.34149       2.62500       5.22898       3.66527       0.39442       0.72900      18.45000      17.32425      16.84345       0.74243       3.32452  
    20.36650      11.43150       4.35240       2.93841       2.61543       5.32545       3.56028       0.32624       0.71069      15.90000      21.04745      18.63100       0.74929       3.09350  
    22.21355      13.32597       4.34451       2.71707       2.78518       6.48593       4.38444       0.36691       0.69883      17.10000      23.06101      17.69527       0.73484       3.09371  
    21.59629      13.01000       4.26955       2.65458       3.18108       6.40704       3.34212       0.42291       0.75318      19.65000      20.85749      14.51144       0.77003       2.99855  
    18.62017      10.26550       3.96716       2.96418       2.01218       5.03565       4.41197       0.45833       0.74219      19.20000      17.62819      11.92672       0.79893       2.96583  
    13.83048       7.36581       3.87573       3.70032       2.67274       4.97547       3.25349       0.52381       0.80310      22.60000      18.19806       6.38907       0.85830       3.62145  
     8.76333       3.94750       3.63899       3.57945       3.30977       5.84354       3.12140       0.65000       0.83542      24.00000      16.45044       2.94447       0.90028       3.86517  
     5.50274       1.36928       3.64107       3.87812       4.04745       6.59342       2.75161       0.50714       0.85000      24.00000      19.18585       1.91881       0.90538       4.34852  
Dourbes                        50.09000       4.59000      59.00000        20  
 tmp_max_ave   tmp_min_ave    tmp_max_sd    tmp_min_sd       pcp_ave        pcp_sd      pcp_skew       wet_dry       wet_wet      pcp_days       pcp_hhr       slr_ave       dew_ave       wnd_ave  
     5.17952       0.13698       3.91220       4.62712       2.52048       4.38323       2.60735       0.46479       0.75676      20.35000      10.14381       2.53235       0.92326       2.02097  
     6.65310       0.23575       4.70323       4.63175       2.35133       4.11541       2.72780       0.35616       0.77457      17.30000      11.05561       5.06198       0.87205       2.04850  
    10.83065       1.61016       4.91749       3.85090       1.84532       3.79263       3.61512       0.24843       0.73841      15.10000      12.38532       9.63421       0.81052       1.90613  
    15.29242       3.73250       5.01923       3.80088       1.53533       3.43827       4.21066       0.24581       0.63636      12.10000      14.05696      15.15328       0.75267       1.69833  
    17.97919       7.02613       4.45359       3.60467       2.60694       5.29275       3.43488       0.34437       0.66981      15.90000      15.88057      16.87226       0.79386       1.51210  
    21.52883      10.55150       4.36970       3.27528       2.28833       5.17486       4.14331       0.29697       0.63704      13.50000      21.04745      18.90148       0.80023       1.36517  
    23.38742      12.32710       4.47991       2.87056       2.40839       5.54243       4.20262       0.35604       0.60943      14.85000      23.06101      18.15622       0.78462       1.33371  
    22.69452      11.97081       4.30447       2.91009       2.65339       5.95265       4.56171       0.40000       0.65672      16.75000      24.73265      15.16026       0.81860       1.25903  
    19.74850       8.94333       3.97854       3.48762       1.80550       5.28345       6.21907       0.27139       0.64751      13.05000      26.32831      11.91848       0.84513       1.28983  
    14.77016       6.91806       3.95245       4.13024       2.08935       4.13242       2.73305       0.36700       0.66254      16.15000      11.39754       6.66798       0.89287       1.66839  
     9.52850       3.66200       3.75884       4.02285       2.19033       4.24280       3.58656       0.49138       0.68750      18.40000      13.63905       3.22019       0.93056       1.75983  
     6.04306       1.17682       3.69511       4.30507       2.79419       4.60003       3.00124       0.38208       0.79902      20.40000      17.05831       2.00358       0.93341       2.05110  
Ernage                         50.60000       4.68000     154.00000        20  
 tmp_max_ave   tmp_min_ave    tmp_max_sd    tmp_min_sd       pcp_ave        pcp_sd      pcp_skew       wet_dry       wet_wet      pcp_days       pcp_hhr       slr_ave       dew_ave       wnd_ave  
     5.27129       0.58823       4.10216       4.67959       2.38758       4.19073       2.86276       0.48259       0.76611      20.95000      11.66348       2.71312       0.92907       3.51565  
     6.45752       0.85292       4.58070       4.29058       2.24142       3.93676       3.01850       0.37557       0.75581      17.20000      10.63770       5.30270       0.88722       3.48690  
    10.31984       2.39371       4.59135       3.60540       1.69532       3.29745       2.72095       0.27987       0.70530      15.10000       7.18045      10.03072       0.83818       3.22823  
    14.91000       4.47383       4.95013       3.55087       1.28433       3.21822       5.72844       0.24646       0.64777      12.35000      14.36089      15.74652       0.77432       2.65233  
    17.81371       7.75242       4.35069       3.58545       2.17774       4.42656       3.34160       0.35862       0.68182      16.50000      13.86700      18.46746       0.79513       2.54113  
    21.30550      10.96183       4.07880       3.01007       2.40833       5.53254       4.26011       0.33550       0.64846      14.65000      21.04745      20.11941       0.81002       2.23617  
    23.12258      12.60887       4.19648       2.67265       2.48887       6.12391       4.46393       0.36246       0.63666      15.55000      23.06101      19.13033       0.79785       2.24581  
    22.62645      12.60726       4.16022       2.59862       2.81274       6.47892       4.08379       0.39583       0.65361      16.60000      20.24962      15.96822       0.81572       2.23290  
    19.69600       9.89917       3.77941       3.12788       1.59867       3.87403       4.00122       0.30488       0.63235      13.60000      13.22114      12.43136       0.84016       2.25433  
    14.67226       7.26952       3.73769       3.87963       2.03452       4.11130       2.91719       0.36667       0.65625      16.00000      11.39754       7.07888       0.89653       2.63581  
     9.69833       3.99933       3.66216       3.68641       1.98183       3.90098       3.92296       0.46862       0.68698      18.05000      16.18450       3.41759       0.93295       2.82850  
     6.25032       1.70815       3.83170       4.06366       2.48194       4.08963       2.43081       0.41667       0.77475      20.20000      10.10581       2.14779       0.93858       3.26029  
Florennes                      50.24000       4.64000     299.00000        20  
 tmp_max_ave   tmp_min_ave    tmp_max_sd    tmp_min_sd       pcp_ave        pcp_sd      pcp_skew       wet_dry       wet_wet      pcp_days       pcp_hhr       slr_ave       dew_ave       wnd_ave  
     4.48435       0.31274       3.87911       4.27200       2.57984       4.36195       2.60514       0.41379       0.75258      19.40000      12.15737       2.38268       0.89378       4.49839  
     5.72920       0.55381       4.57774       4.27297       2.56637       4.77533       3.31929       0.34677       0.72871      15.85000      16.41245       4.95035       0.83971       4.41416  
     9.48323       2.32597       4.63391       3.61329       1.79645       3.58408       3.45823       0.22823       0.73519      14.35000      12.84122       9.34963       0.77065       4.13387  
    13.77617       4.84983       4.86113       3.66139       1.32617       2.86681       3.12575       0.22751       0.61261      11.10000       7.97827      14.67482       0.70455       3.38967  
    16.75871       7.94516       4.41718       3.34149       2.22355       4.43758       3.33722       0.30625       0.67000      15.00000      13.25913      16.84345       0.74243       3.32452  
    20.36650      11.43150       4.35240       2.93841       2.44400       5.34045       4.08221       0.29787       0.63838      13.55000      21.04745      18.63100       0.74929       3.09350  
    22.21355      13.32597       4.34451       2.71707       2.23081       5.25245       4.75381       0.32727       0.62414      14.50000      23.06101      17.69527       0.73484       3.09371  
    21.59629      13.01000       4.26955       2.65458       2.59855       5.64363       3.95018       0.34375       0.63333      15.00000      21.95925      14.51144       0.77003       2.99855  
    18.62017      10.26550       3.96716       2.96418       1.59483       4.61565       7.08242       0.23380       0.66122      12.25000      25.37851      11.92672       0.79893       2.96583  
    13.83048       7.36581       3.87573       3.70032       2.10677       4.16765       2.95182       0.33013       0.66558      15.40000      11.39754       6.38907       0.85830       3.62145  
     8.76333       3.94750       3.63899       3.57945       2.22000       4.36021       3.90855       0.45833       0.69167      18.00000      17.40024       2.94447       0.90028       3.86517  
     5.50274       1.36928       3.64107       3.87812       2.78613       4.73154       2.69324       0.36250       0.76842      19.00000      11.32155       1.91881       0.90538       4.34852  
Gedinne                        49.98000       4.98000     400.00000        20  
 tmp_max_ave   tmp_min_ave    tmp_max_sd    tmp_min_sd       pcp_ave        pcp_sd      pcp_skew       wet_dry       wet_wet      pcp_days       pcp_hhr       slr_ave       dew_ave       wnd_ave  
     4.48435       0.31274       3.87911       4.27200       3.77735       6.79396       2.98784       0.59420       0.82780      24.10000      17.66618       2.38268       0.89378       4.49839  
     5.72920       0.55381       4.57774       4.27297       3.39805       6.11308       2.72103       0.43787       0.81061      19.80000      16.37446       4.95035       0.83971       4.41416  
     9.48323       2.32597       4.63391       3.61329       2.65226       4.93967       2.68067       0.38938       0.77665      19.70000      12.34733       9.34963       0.77065       4.13387  
    13.77617       4.84983       4.86113       3.66139       1.97367       4.12555       3.27047       0.30968       0.66897      14.50000      15.08274      14.67482       0.70455       3.38967  
    16.75871       7.94516       4.41718       3.34149       2.54613       5.15729       3.66455       0.36923       0.73056      18.00000      17.93212      16.84345       0.74243       3.32452  
    20.36650      11.43150       4.35240       2.93841       2.67250       5.62277       3.44933       0.34173       0.70497      16.10000      17.66618      18.63100       0.74929       3.09350  
    22.21355      13.32597       4.34451       2.71707       2.68806       6.13213       3.85649       0.34276       0.70920      16.85000      19.75573      17.69527       0.73484       3.09371  
    21.59629      13.01000       4.26955       2.65458       3.29426       6.74459       3.33336       0.43033       0.71809      18.80000      21.23741      14.51144       0.77003       2.99855  
    18.62017      10.26550       3.96716       2.96418       2.05600       5.00456       3.47175       0.45064       0.71390      18.35000      12.61327      11.92672       0.79893       2.96583  
    13.83048       7.36581       3.87573       3.70032       2.99613       5.60371       3.12916       0.50898       0.81236      22.65000      16.60241       6.38907       0.85830       3.62145  
     8.76333       3.94750       3.63899       3.57945       3.23967       5.83135       3.75469       0.63115       0.83682      23.90000      24.27675       2.94447       0.90028       3.86517  
     5.50274       1.36928       3.64107       3.87812       4.33439       7.37713       3.02998       0.57143       0.83125      24.00000      24.84663       1.91881       0.90538       4.34852  
Humain                         50.21000       5.25000     482.00000        20  
 tmp_max_ave   tmp_min_ave    tmp_max_sd    tmp_min_sd       pcp_ave        pcp_sd      pcp_skew       wet_dry       wet_wet      pcp_days       pcp_hhr       slr_ave       dew_ave       wnd_ave  
     4.51161      -0.11065       3.97871       4.41812       2.75419       4.62229       3.24906       0.49741       0.77283      21.35000      16.33647       2.64054       0.91350       3.61597  
     5.84301       0.15664       4.65707       4.41377       2.53080       4.40801       2.92022       0.44388       0.76152      18.45000      10.78967       5.25193       0.86175       3.62053  
     9.78194       1.80210       4.75380       3.70122       2.10468       4.21508       3.41865       0.29562       0.76301      17.30000      13.90499       9.61831       0.80101       3.28823  
    14.16133       4.24383       4.90397       3.74769       1.44533       3.42654       3.77695       0.25568       0.63710      12.40000      11.77745      15.02609       0.73805       2.80100  
    17.26581       7.50661       4.55358       3.52080       2.67129       4.99455       2.84972       0.37282       0.67568      16.65000      13.18315      17.27100       0.77193       2.61548  
    20.93400      11.02167       4.27835       3.11085       2.55583       5.91866       4.92122       0.31290       0.66552      14.50000      24.54269      19.15523       0.78309       2.40900  
    22.60290      12.77984       4.41098       2.87850       2.59403       6.24694       4.34083       0.32704       0.65232      15.10000      23.06101      18.23550       0.76523       2.42855  
    21.88694      12.44500       4.26179       2.79923       3.11000       6.11719       3.34148       0.43077       0.68611      18.00000      19.75573      15.14338       0.79772       2.36774  
    18.88217       9.52200       3.95317       3.17159       1.87800       4.51571       3.95410       0.31293       0.69935      15.30000      14.43688      11.91563       0.82162       2.39900  
    14.05194       6.98403       3.99766       3.83311       2.22694       4.34220       3.02394       0.39847       0.70752      17.95000      12.72725       6.58187       0.87296       2.96048  
     8.92400       3.62917       3.82282       3.72955       2.30333       4.05750       2.77987       0.48113       0.73454      19.40000      10.59971       3.16692       0.91479       3.14450  
     5.55387       1.11815       3.65052       3.90158       2.86306       4.50260       2.43419       0.46196       0.80275      21.80000      10.59971       2.01425       0.92189       3.42594  
Rochefort                      50.17000       5.21000     193.00000        20  
 tmp_max_ave   tmp_min_ave    tmp_max_sd    tmp_min_sd       pcp_ave        pcp_sd      pcp_skew       wet_dry       wet_wet      pcp_days       pcp_hhr       slr_ave       dew_ave       wnd_ave  
     4.48435       0.31274       3.87911       4.27200       2.47876       4.21461       2.92637       0.55882       0.78667      22.50000      13.25913       2.38268       0.89378       4.49839  
     5.72920       0.55381       4.57774       4.27297       2.32938       3.99082       2.68364       0.45304       0.78385      19.20000      10.97963       4.95035       0.83971       4.41416  
     9.48323       2.32597       4.63391       3.61329       1.96166       3.88732       3.10972       0.40873       0.72011      18.40000      11.35954       9.34963       0.77065       4.13387  
    13.77617       4.84983       4.86113       3.66139       1.50883       3.42005       3.60033       0.29022       0.67491      14.15000      11.35954      14.67482       0.70455       3.38967  
    16.75871       7.94516       4.41718       3.34149       2.34452       4.75744       3.34967       0.36918       0.69501      17.05000      14.96876      16.84345       0.74243       3.32452  
    20.36650      11.43150       4.35240       2.93841       2.50768       5.21148       4.17988       0.30492       0.68475      14.75000      23.44093      18.63100       0.74929       3.09350  
    22.21355      13.32597       4.34451       2.71707       2.76268       6.93932       5.62003       0.36462       0.70262      17.15000      31.41921      17.69527       0.73484       3.09371  
    21.59629      13.01000       4.26955       2.65458       2.96065       6.02507       3.56811       0.41736       0.73016      18.90000      21.12343      14.51144       0.77003       2.99855  
    18.62017      10.26550       3.96716       2.96418       1.77400       4.25241       3.76342       0.28479       0.69759      14.55000      13.22114      11.92672       0.79893       2.96583  
    13.83048       7.36581       3.87573       3.70032       2.07176       3.83139       2.75641       0.47009       0.71503      19.30000      10.25778       6.38907       0.85830       3.62145  
     8.76333       3.94750       3.63899       3.57945       2.19842       3.91721       2.89799       0.56805       0.77494      21.55000      10.75167       2.94447       0.90028       3.86517  
     5.50274       1.36928       3.64107       3.87812       2.64681       4.36921       2.72912       0.50286       0.80000      22.25000      12.87921       1.91881       0.90538       4.34852  
Saint-Hubert                   50.02000       5.37000      27.00000        20  
 tmp_max_ave   tmp_min_ave    tmp_max_sd    tmp_min_sd       pcp_ave        pcp_sd      pcp_skew       wet_dry       wet_wet      pcp_days       pcp_hhr       slr_ave       dew_ave       wnd_ave  
     2.31710      -1.22758       3.78254       4.07289       3.40274       5.49681       3.12878       0.45614       0.82628      22.45000      19.10987       2.38268       0.90422       4.00177  
     3.43823      -1.08053       4.69632       4.43896       3.17363       5.38125       2.75094       0.37811       0.78846      18.20000      15.27270       4.95035       0.85361       4.02991  
     7.50210       0.88500       4.94720       3.75633       2.50252       4.37338       2.45927       0.29496       0.76023      17.10000      10.18180       9.34963       0.78534       3.93371  
    12.01100       3.78717       4.97939       3.88652       1.77903       3.74394       3.05460       0.26627       0.65649      13.10000      10.10581      14.67482       0.71566       3.49633  
    15.03935       6.99339       4.58941       3.55557       2.91161       5.41191       3.25739       0.37687       0.71023      17.60000      19.83171      16.84345       0.75054       3.42694  
    18.77683      10.58000       4.54683       3.31407       2.78195       5.71115       3.46953       0.30897       0.68896      14.95000      21.04745      18.63100       0.76062       3.14433  
    20.26839      12.23516       4.47223       3.18477       2.85115       6.46928       4.56782       0.36770       0.67173      16.45000      23.06101      17.69527       0.75304       3.04500  
    19.61597      11.96516       4.37661       3.09594       3.74656       7.72223       3.51989       0.40977       0.69209      17.70000      24.08679      14.51144       0.78585       2.93935  
    16.56383       9.12983       4.11682       3.19124       2.20885       5.22568       3.78715       0.25749       0.67669      13.30000      17.62819      11.92672       0.80885       3.07500  
    11.68290       6.13435       4.03173       3.73539       2.74887       5.09246       3.36115       0.42126       0.70765      18.30000      18.19806       6.38907       0.87291       3.60306  
     6.72450       2.70167       3.78207       3.50464       3.05293       5.08904       2.64323       0.58228       0.78959      22.10000      12.23335       2.94447       0.91516       3.66517  
     3.56452       0.00444       3.62492       3.76721       3.87084       5.89539       2.67214       0.42778       0.82273      22.00000      20.47757       1.91881       0.90919       3.88787  
