exco.con: written by SWAT+ editor v2.1.0 on 2023-06-15 16:23 for SWAT+ rev.60.5.4
      id  name                gis_id          area           lat           lon          elev      exco               wst       cst      ovfl      rule   out_tot       obj_typ    obj_id       hyd_typ          frac  
       1  pssite_1                 0       0.00001      59.72009      10.89477     141.17000         1              null         0         0         0         1           sdc       110           tot       1.00000  
       2  pssite_2                 0       0.00001      59.68940      10.86856     116.08000         2              null         0         0         0         1           res        58           tot       1.00000  
       3  pssite_3                 0       0.00001      59.61068      10.89635      95.29000         3              null         0         0         0         1           sdc       115           tot       1.00000  
       4  pssite_4                 0       0.00001      59.69419      10.89752     118.50000         4              null         0         0         0         1           res        24           tot       1.00000  
       5  pssite_5                 0       0.00001      59.68150      10.89721     100.91000         5              null         0         0         0         1           sdc       195           tot       1.00000  
       6  pssite_6                 0       0.00001      59.68227      10.89713     106.23000         6              null         0         0         0         1           sdc       388           tot       1.00000  
       7  pssite_7                 0       0.00001      59.68292      10.89756     109.30000         7              null         0         0         0         1           sdc       248           tot       1.00000  
       8  pssite_8                 0       0.00001      59.67768      10.90675     125.41000         8              null         0         0         0         1           sdc       201           tot       1.00000  
       9  pssite_9                 0       0.00001      59.67748      10.90707     125.80000         9              null         0         0         0         1           sdc       201           tot       1.00000  
      10  pssite_10                0       0.00001      59.67727      10.90734     123.18000        10              null         0         0         0         1           sdc       198           tot       1.00000  
      11  pssite_11                0       0.00001      59.69287      10.86129     122.89000        11              null         0         0         0         1           sdc       415           tot       1.00000  
      12  pssite_12                0       0.00001      59.67716      10.91091     127.81000        12              null         0         0         0         1           sdc       216           tot       1.00000  
      13  pssite_13                0       0.00001      59.67377      10.91878     125.80000        13              null         0         0         0         1           sdc       227           tot       1.00000  
      14  pssite_14                0       0.00001      59.67416      10.91848     128.67999        14              null         0         0         0         1           sdc       227           tot       1.00000  
      15  pssite_15                0       0.00001      59.66419      10.89199     111.30000        15              null         0         0         0         1           res        14           tot       1.00000  
      16  pssite_16                0       0.00001      59.70932      10.87450     113.85000        16              null         0         0         0         1           sdc       281           tot       1.00000  
      17  pssite_17                0       0.00001      59.69074      10.86579     120.95000        17              null         0         0         0         1           sdc       416           tot       1.00000  
      18  pssite_18                0       0.00001      59.67722      10.90850     129.50999        18              null         0         0         0         1           sdc       216           tot       1.00000  
      19  pssite_19                0       0.00001      59.67976      10.90168     112.56000        19              null         0         0         0         1           sdc       195           tot       1.00000  
      20  pssite_20                0       0.00001      59.67890      10.90447     128.74001        20              null         0         0         0         1           sdc       204           tot       1.00000  
      21  pssite_21                0       0.00001      59.68941      10.86314     110.52000        21              null         0         0         0         1           sdc       416           tot       1.00000  
      22  pssite_22                0       0.00001      59.69677      10.89205     118.72000        22              null         0         0         0         1           sdc       127           tot       1.00000  
      23  pssite_23                0       0.00001      59.67589      10.91535     121.63000        23              null         0         0         0         1           sdc       221           tot       1.00000  
      24  pssite_24                0       0.00001      59.68393      10.94476     174.31000        24              null         0         0         0         1           sdc       373           tot       1.00000  
      25  pssite_25                0       0.00001      59.71083      10.91037     160.10001        25              null         0         0         0         1           res        36           tot       1.00000  
      26  pssite_26                0       0.00001      59.71326      10.90360     158.11000        26              null         0         0         0         1           res        36           tot       1.00000  
      27  pssite_27                0       0.00001      59.63001      10.88248     109.36000        27              null         0         0         0         1           res         5           tot       1.00000  
      28  pssite_28                0       0.00001      59.69912      10.90112     131.89999        28              null         0         0         0         1           sdc        76           tot       1.00000  
      29  pssite_29                0       0.00001      59.69911      10.90073     131.17999        29              null         0         0         0         1           sdc        76           tot       1.00000  
      30  pssite_30                0       0.00001      59.69297      10.89982     121.31000        30              null         0         0         0         1           res        22           tot       1.00000  
      31  pssite_31                0       0.00001      59.69295      10.90026     118.54000        31              null         0         0         0         1           res        22           tot       1.00000  
      32  pssite_32                0       0.00001      59.69726      10.89727     123.50000        32              null         0         0         0         1           sdc        76           tot       1.00000  
      33  pssite_33                0       0.00001      59.66819      10.91661     129.28999        33              null         0         0         0         1           sdc       326           tot       1.00000  
      34  pssite_34                0       0.00001      59.68327      10.92113     144.32001        34              null         0         0         0         1           sdc       104           tot       1.00000  
      35  pssite_35                0       0.00001      59.70108      10.90845     114.32000        35              null         0         0         0         1           sdc       126           tot       1.00000  
      36  pssite_36                0       0.00001      59.62224      10.90133     126.92000        36              null         0         0         0         1           sdc       407           tot       1.00000  
      37  pssite_37                0       0.00001      59.66921      10.87317     127.70000        37              null         0         0         0         1           res        47           tot       1.00000  
      38  pssite_38                0       0.00001      59.66523      10.93072     162.56000        38              null         0         0         0         1           res        42           tot       1.00000  
      39  pssite_39                0       0.00001      59.70706      10.90810     158.80000        39              null         0         0         0         1           sdc       126           tot       1.00000  
      40  pssite_40                0       0.00001      59.63470      10.88590     104.27000        40              null         0         0         0         1           res        37           tot       1.00000  
      41  pssite_41                0       0.00001      59.63381      10.88593     101.09000        41              null         0         0         0         1           res        37           tot       1.00000  
      42  pssite_42                0       0.00001      59.70537      10.92533     169.94000        42              null         0         0         0         1           sdc        78           tot       1.00000  
      43  pssite_44                0       0.00001      59.71002      10.90176     137.25999        43              null         0         0         0         0  
      44  pssite_45                0       0.00001      59.62794      10.90830     124.77000        44              null         0         0         0         1           res        36           tot       1.00000  
      45  pssite_46                0       0.00001      59.72200      10.89321     145.19000        45              null         0         0         0         1           sdc       406           tot       1.00000  
      46  pssite_47                0       0.00001      59.67626      10.84969     145.67999        46              null         0         0         0         1           sdc       110           tot       1.00000  
      47  pssite_48                0       0.00001      59.72153      10.88911     138.08000        47              null         0         0         0         1           res        16           tot       1.00000  
      48  pssite_49                0       0.00001      59.66089      10.93808     150.63000        48              null         0         0         0         1           sdc       110           tot       1.00000  
      49  pssite_50                0       0.00001      59.69455      10.89733     119.43000        49              null         0         0         0         1           sdc       317           tot       1.00000  
      50  pssite_51                0       0.00001      59.66388      10.93943     150.39999        50              null         0         0         0         1           res        24           tot       1.00000  
      51  pssite_52                0       0.00001      59.67084      10.93008     119.36000        51              null         0         0         0         1           res        44           tot       1.00000  
      52  pssite_53                0       0.00001      59.67189      10.93089     131.37000        52              null         0         0         0         1           sdc        19           tot       1.00000  
      53  pssite_54                0       0.00001      59.66622      10.90050     120.97000        53              null         0         0         0         1           sdc       243           tot       1.00000  
      54  pssite_55                0       0.00001      59.68186      10.93739     169.37000        54              null         0         0         0         1           res        15           tot       1.00000  
      55  pssite_56                0       0.00001      59.69180      10.91354     126.79000        55              null         0         0         0         1           sdc       374           tot       1.00000  
      56  pssite_57                0       0.00001      59.68437      10.94324     171.25999        56              null         0         0         0         1           sdc        93           tot       1.00000  
      57  pssite_58                0       0.00001      59.70782      10.91854     148.69000        57              null         0         0         0         1           sdc       381           tot       1.00000  
      58  pssite_59                0       0.00001      59.61321      10.90082     121.33000        58              null         0         0         0         1           sdc       126           tot       1.00000  
      59  pssite_60                0       0.00001      59.67698      10.91177     126.68000        59              null         0         0         0         1           res        40           tot       1.00000  
      60  pssite_61                0       0.00001      59.70958      10.87827     115.29000        60              null         0         0         0         1           sdc       336           tot       1.00000  
      61  pssite_62                0       0.00001      59.68976      10.91742     135.84000        61              null         0         0         0         1           sdc       161           tot       1.00000  
      62  pssite_63                0       0.00001      59.67674      10.91216     128.30000        62              null         0         0         0         1           sdc        63           tot       1.00000  
      63  pssite_64                0       0.00001      59.65469      10.89167      97.35000        63              null         0         0         0         1           sdc       336           tot       1.00000  
      64  pssite_65                0       0.00001      59.66963      10.87285     130.14000        64              null         0         0         0         1           sdc        58           tot       1.00000  
      65  pssite_66                0       0.00001      59.70172      10.88492     104.79105        65              null         0         0         0         1           res        47           tot       1.00000  
      66  pssite_67                0       0.00001      59.67342      10.86083     123.47000        66              null         0         0         0         1           sdc         2           tot       1.00000  
      67  pssite_68                0       0.00001      59.71726      10.88471     139.59000        67              null         0         0         0         1           res        48           tot       1.00000  
      68  pssite_69                0       0.00001      59.69724      10.89819     125.35000        68              null         0         0         0         1           sdc         2           tot       1.00000  
      69  pssite_70                0       0.00001      59.64688      10.89086     102.57000        69              null         0         0         0         1           sdc        76           tot       1.00000  
      70  pssite_71                0       0.00001      59.64564      10.88131      92.11000        70              null         0         0         0         1           sdc       340           tot       1.00000  
      71  pssite_72                0       0.00001      59.61835      10.90278     111.58000        71              null         0         0         0         1           sdc        52           tot       1.00000  
      72  pssite_73                0       0.00001      59.68205      10.93865     173.23000        72              null         0         0         0         1           sdc       408           tot       1.00000  
      73  pssite_74                0       0.00001      59.70620      10.86580     125.17000        73              null         0         0         0         1           sdc       381           tot       1.00000  
      74  pssite_75                0       0.00001      59.70586      10.86613     123.89000        74              null         0         0         0         1           sdc        69           tot       1.00000  
      75  pssite_76                0       0.00001      59.70499      10.86520     120.99000        75              null         0         0         0         1           sdc        69           tot       1.00000  
      76  pssite_77                0       0.00001      59.70196      10.89394     117.22000        76              null         0         0         0         1           sdc        69           tot       1.00000  
      77  pssite_78                0       0.00001      59.69265      10.92295     157.47000        77              null         0         0         0         1           sdc       125           tot       1.00000  
      78  pssite_79                0       0.00001      59.68258      10.90260     120.84000        78              null         0         0         0         1           res         4           tot       1.00000  
      79  pssite_80                0       0.00001      59.64636      10.89081     103.38000        79              null         0         0         0         1           sdc       195           tot       1.00000  
      80  pssite_81                0       0.00001      59.66996      10.87103     134.03000        80              null         0         0         0         1           sdc       354           tot       1.00000  
      81  pssite_82                0       0.00001      59.69908      10.90826     114.73000        81              null         0         0         0         1           res        47           tot       1.00000  
      82  pssite_83                0       0.00001      59.59806      10.89318      66.02000        82              null         0         0         0         1           sdc        12           tot       1.00000  
      83  pssite_84                0       0.00001      59.70503      10.86559     119.86000        83              null         0         0         0         1           sdc       402           tot       1.00000  
      84  pssite_85                0       0.00001      59.63051      10.90728     122.48000        84              null         0         0         0         1           sdc        69           tot       1.00000  
      85  pssite_86                0       0.00001      59.70821      10.89359     117.96000        85              null         0         0         0         1           res        51           tot       1.00000  
      86  pssite_87                0       0.00001      59.66824      10.90175     113.81000        86              null         0         0         0         1           sdc         2           tot       1.00000  
      87  pssite_88                0       0.00001      59.65245      10.89041     105.42000        87              null         0         0         0         1           sdc       413           tot       1.00000  
      88  pssite_89                0       0.00001      59.70529      10.86567     120.58000        88              null         0         0         0         1           sdc        58           tot       1.00000  
      89  pssite_90                0       0.00001      59.65101      10.88214     107.93000        89              null         0         0         0         1           sdc        69           tot       1.00000  
      90  pssite_91                0       0.00001      59.69044      10.91810     137.36000        90              null         0         0         0         1           sdc        57           tot       1.00000  
      91  pssite_92                0       0.00001      59.68677      10.88490     104.55000        91              null         0         0         0         1           sdc        93           tot       1.00000  
      92  pssite_93                0       0.00001      59.70931      10.86858     117.31000        92              null         0         0         0         1           sdc       254           tot       1.00000  
      93  pssite_94                0       0.00001      59.70808      10.89118     119.45000        93              null         0         0         0         1           sdc       282           tot       1.00000  
      94  pssite_95                0       0.00001      59.71472      10.87297     127.69000        94              null         0         0         0         1           sdc         2           tot       1.00000  
      95  pssite_96                0       0.00001      59.70918      10.87284     115.89000        95              null         0         0         0         1           sdc       194           tot       1.00000  
      96  pssite_97                0       0.00001      59.70661      10.86632     123.20000        96              null         0         0         0         1           sdc       277           tot       1.00000  
      97  pssite_98                0       0.00001      59.68330      10.85816     106.80000        97              null         0         0         0         1           sdc        69           tot       1.00000  
      98  pssite_99                0       0.00001      59.69744      10.88663     100.60000        98              null         0         0         0         1           sdc        65           tot       1.00000  
      99  pssite_100               0       0.00001      59.69257      10.87570     108.80000        99              null         0         0         0         1           sdc       127           tot       1.00000  
     100  pssite_101               0       0.00001      59.69858      10.89331     120.44000       100              null         0         0         0         1           sdc       189           tot       1.00000  
     101  pssite_102               0       0.00001      59.68921      10.89329     107.55000       101              null         0         0         0         1           sdc       127           tot       1.00000  
     102  pssite_103               0       0.00001      59.68921      10.89329     107.55000       102              null         0         0         0         1           sdc        62           tot       1.00000  
     103  pssite_104               0       0.00001      59.67239      10.90401     112.77000       103              null         0         0         0         1           sdc        62           tot       1.00000  
     104  pssite_105               0       0.00001      59.67019      10.94208     150.55000       104              null         0         0         0         1           res        45           tot       1.00000  
     105  pssite_106               0       0.00001      59.66683      10.87378     119.00000       105              null         0         0         0         1           res        29           tot       1.00000  
     106  pssite_107               0       0.00001      59.66603      10.87849     115.88000       106              null         0         0         0         1           sdc        59           tot       1.00000  
     107  pssite_108               0       0.00001      59.66658      10.88213     110.72000       107              null         0         0         0         1           res        12           tot       1.00000  
     108  pssite_109               0       0.00001      59.66721      10.88103     115.64000       108              null         0         0         0         1           sdc        59           tot       1.00000  
     109  pssite_110               0       0.00001      59.66948      10.87373     127.71000       109              null         0         0         0         1           sdc        59           tot       1.00000  
     110  pssite_111               0       0.00001      59.70814      10.87380     119.21000       110              null         0         0         0         1           res        47           tot       1.00000  
     111  pssite_112               0       0.00001      59.66485      10.91090     124.73000       111              null         0         0         0         1           sdc       275           tot       1.00000  
     112  pssite_113               0       0.00001      59.61419      10.88813      90.63000       112              null         0         0         0         1           sdc       326           tot       1.00000  
     113  pssite_114               0       0.00001      59.68380      10.94415     173.27000       113              null         0         0         0         1           sdc         6           tot       1.00000  
     114  pssite_115               0       0.00001      59.69403      10.91553     135.66000       114              null         0         0         0         1           sdc       373           tot       1.00000  
     115  pssite_116               0       0.00001      59.68449      10.93509     172.17000       115              null         0         0         0         1           sdc        93           tot       1.00000  
     116  pssite_117               0       0.00001      59.61090      10.89452      88.09000       116              null         0         0         0         1           sdc       374           tot       1.00000  
     117  pssite_118               0       0.00001      59.65066      10.89650     110.09000       117              null         0         0         0         1           res        40           tot       1.00000  
     118  pssite_119               0       0.00001      59.66606      10.87285     122.55000       118              null         0         0         0         1           res         9           tot       1.00000  
     119  pssite_120               0       0.00001      59.64154      10.88940     111.01000       119              null         0         0         0         1           sdc        59           tot       1.00000  
     120  pssite_121               0       0.00001      59.67031      10.94964     165.14999       120              null         0         0         0         1           sdc       141           tot       1.00000  
     121  pssite_122               0       0.00001      59.64889      10.87974     110.94000       121              null         0         0         0         1           sdc       155           tot       1.00000  
     122  pssite_123               0       0.00001      59.64851      10.87963     109.70000       122              null         0         0         0         1           res         2           tot       1.00000  
     123  pssite_124               0       0.00001      59.65000      10.87463     117.36000       123              null         0         0         0         1           res         2           tot       1.00000  
     124  pssite_125               0       0.00001      59.69499      10.90460     123.72000       124              null         0         0         0         1           sdc       122           tot       1.00000  
     125  pssite_126               0       0.00001      59.69368      10.91544     130.67000       125              null         0         0         0         1           res        23           tot       1.00000  
     126  pssite_127               0       0.00001      59.68786      10.93595     165.53999       126              null         0         0         0         1           sdc        93           tot       1.00000  
     127  pssite_128               0       0.00001      59.68472      10.93404     172.80000       127              null         0         0         0         1           sdc       378           tot       1.00000  
     128  pssite_129               0       0.00001      59.69201      10.88094     116.73000       128              null         0         0         0         1           sdc       374           tot       1.00000  
     129  pssite_130               0       0.00001      59.69273      10.87462     111.22000       129              null         0         0         0         1           sdc       257           tot       1.00000  
     130  pssite_131               0       0.00001      59.69547      10.87408     112.28000       130              null         0         0         0         1           sdc       189           tot       1.00000  
     131  pssite_132               0       0.00001      59.71513      10.89311     139.41000       131              null         0         0         0         1           res        41           tot       1.00000  
     132  pssite_133               0       0.00001      59.69988      10.88574     103.43000       132              null         0         0         0         1           sdc       113           tot       1.00000  
     133  pssite_134               0       0.00001      59.67016      10.91450     122.67000       133              null         0         0         0         1           sdc         2           tot       1.00000  
     134  pssite_135               0       0.00001      59.66950      10.87237     131.88000       134              null         0         0         0         1           sdc       326           tot       1.00000  
     135  pssite_136               0       0.00001      59.66968      10.87163     132.94000       135              null         0         0         0         1           res        47           tot       1.00000  
     136  pssite_137               0       0.00001      59.66079      10.89334     116.35000       136              null         0         0         0         1           res        47           tot       1.00000  
     137  pssite_138               0       0.00001      59.67340      10.91744     111.14000       137              null         0         0         0         1           res        13           tot       1.00000  
     138  pssite_139               0       0.00001      59.70929      10.87806     114.86000       138              null         0         0         0         1           sdc       224           tot       1.00000  