soils.sol: written by SWAT+ editor v2.1.0 on 2023-06-14 16:26 for SWAT+ rev.60.5.4
name                            nly           hyd_grp        dp_tot    anion_excl      perc_crk  texture                              dp            bd           awc        soil_k        carbon          clay          silt          sand          rock           alb        usle_k            ec         caco3            ph  
ANT                               2                 D     500.00000       0.50000       0.50000  sandy_loam                 
                                                                                                                                50.00000       1.10000       0.26000       5.00000       6.00000       5.00000      22.40000      72.60000      12.00000       0.20000       0.20000       0.00000       0.00000       0.00000  
                                                                                                                               100.00000       0.70000       0.05000       0.00000       0.10000      80.00000      15.00000       5.00000      99.00000       0.20000       0.10000       0.00000       0.00000       0.00000  
ARD                               4                 C    1000.00000       0.50000       0.50000  loamy_sand                 
                                                                                                                               250.00000       1.22000       0.25000      35.00000       3.10000       4.00000      16.40000      79.60000      12.00000       0.20000       0.10000       0.00000       0.00000       0.00000  
                                                                                                                               550.00000       1.62000       0.20000      27.50000       0.30000       4.00000       3.80000      92.20000      12.00000       0.20000       0.10000       0.00000       0.00000       0.00000  
                                                                                                                               800.00000       1.68000       0.20000      21.30000       0.20000       1.00000       4.20000      94.80000      11.00000       0.20000       0.10000       0.00000       0.00000       0.00000  
                                                                                                                              1000.00000       1.75000       0.21000      11.90000       0.10000       2.00000       5.80000      92.20000      11.00000       0.20000       0.10000       0.00000       0.00000       0.00000  
BEA                               2                 C     800.00000       0.50000       0.25000  sandy_loam                 
                                                                                                                               150.00000       1.45000       0.25000      33.00000       2.10000       5.00000      22.40000      72.60000       8.00000       0.20000       0.20000       0.00000       0.00000       0.00000  
                                                                                                                               800.00000       1.50000       0.20000      25.00000       2.10000       5.00000      22.40000      72.60000       8.00000       0.20000       0.20000       0.00000       0.00000       0.00000  
BOG                               1                 D     800.00000       0.50000       0.50000  silt_loam                  
                                                                                                                               800.00000       0.33000       0.35000      40.00000      25.00000      52.90000      30.00000      17.10000      13.00000       0.20000       0.10000       0.00000       0.00000       0.00000  
CM1                               4                 C    1000.00000       0.50000       0.50000  sandy_loam                 
                                                                                                                               250.00000       1.27000       0.22000      18.20000       2.70000       7.00000      34.50000      58.50000      12.00000       0.20000       0.20000       0.00000       0.00000       0.00000  
                                                                                                                               450.00000       1.52000       0.19000      15.30000       1.00000       7.00000      34.50000      58.50000      13.00000       0.20000       0.30000       0.00000       0.00000       0.00000  
                                                                                                                               650.00000       1.64000       0.18000      12.70000       0.40000       7.00000      34.50000      58.50000      13.00000       0.20000       0.30000       0.00000       0.00000       0.00000  
                                                                                                                              1000.00000       1.72000       0.00000       9.70000       0.30000       7.00000      34.50000      58.50000      12.00000       0.20000       0.30000       0.00000       0.00000       0.00000  
CM2                               3                 D    1000.00000       0.50000       0.50000  silty_clay_loam            
                                                                                                                               250.00000       1.49000       0.17000       5.40000       2.70000      30.00000      59.50000      10.50000      10.00000       0.20000       0.30000       0.00000       0.00000       0.00000  
                                                                                                                               650.00000       1.79000       0.10000       4.10000       0.30000      30.00000      59.50000      10.50000      11.00000       0.20000       0.40000       0.00000       0.00000       0.00000  
                                                                                                                              1000.00000       1.91000       0.07000       2.20000       0.10000      30.00000      59.50000      10.50000      10.00000       0.20000       0.40000       0.00000       0.00000       0.00000  
END                               2                 D     500.00000       0.50000       0.50000  sandy_loam                 
                                                                                                                                50.00000       1.10000       0.26000       5.00000       6.00000       5.00000      22.40000      72.60000      12.00000       0.20000       0.20000       0.00000       0.00000       0.00000  
                                                                                                                               100.00000       0.70000       0.05000       0.00000       0.10000      80.00000      15.00000       5.00000      99.00000       0.20000       0.10000       0.00000       0.00000       0.00000  
GLC                               3                 C    1000.00000       0.50000       0.50000  loam                       
                                                                                                                               250.00000       1.07000       0.27000      10.30000       8.00000      22.00000      42.40000      35.60000      11.00000       0.20000       0.20000       0.00000       0.00000       0.00000  
                                                                                                                               550.00000       1.73000       0.11000       4.80000       0.60000      29.00000      58.40000      12.60000      11.00000       0.20000       0.40000       0.00000       0.00000       0.00000  
                                                                                                                              1000.00000       1.88000       0.18000       3.00000       0.20000      29.00000      58.40000      12.60000      10.00000       0.20000       0.40000       0.00000       0.00000       0.00000  
GLU                               3                 C    1000.00000       0.50000       0.50000  silt_loam                  
                                                                                                                               250.00000       1.28000       0.19000       8.10000       3.90000      23.00000      55.90000      21.10000       9.00000       0.20000       0.30000       0.00000       0.00000       0.00000  
                                                                                                                               550.00000       1.47000       0.18000      12.40000       1.60000      10.00000      51.20000      38.80000      10.00000       0.20000       0.30000       0.00000       0.00000       0.00000  
                                                                                                                              1000.00000       1.70000       0.19000       9.00000       0.60000      11.00000      40.60000      48.40000       9.00000       0.20000       0.30000       0.00000       0.00000       0.00000  
HS                                2                 D    1000.00000       0.50000       0.50000  silty-clay-loam            
                                                                                                                               250.00000       0.17000       0.30000      33.30000      40.00000      52.90000      30.00000      17.10000      10.00000       0.20000       0.10000       0.00000       0.00000       0.00000  
                                                                                                                              1000.00000       0.17000       0.30000      33.30000      40.00000      52.90000      30.00000      17.10000      10.00000       0.20000       0.10000       0.00000       0.00000       0.00000  
HUM                               1                 D     250.00000       0.50000       0.50000  silt_loam                  
                                                                                                                               250.00000       0.33000       0.35000      40.00000      25.00000      52.90000      30.00000      17.10000      13.00000       0.20000       0.10000       0.00000       0.00000       0.00000  
LV                                4                 C    1000.00000       0.50000       0.50000  silt_loam                  
                                                                                                                               250.00000       1.37000       0.18000       3.40000       2.20000      16.00000      74.40000       9.60000      10.00000       0.20000       0.30000       0.00000       0.00000       0.00000  
                                                                                                                               550.00000       1.61000       0.15000       7.90000       0.70000      15.00000      75.20000       9.80000      10.00000       0.20000       0.40000       0.00000       0.00000       0.00000  
                                                                                                                               700.00000       1.74000       0.21000       5.90000       0.30000      18.00000      69.10000      12.90000      10.00000       0.20000       0.40000       0.00000       0.00000       0.00000  
                                                                                                                              1000.00000       1.82000       0.00000       3.70000       0.10000      18.00000      69.10000      12.90000      10.00000       0.20000       0.40000       0.00000       0.00000       0.00000  
Mon                               2                 D     500.00000       0.50000       0.05000  sandy_loam                 
                                                                                                                                50.00000       1.10000       0.26000       5.00000       6.00000       5.00000      22.40000      72.60000      12.00000       0.20000       0.20000       0.00000       0.00000       0.00000  
                                                                                                                               100.00000       0.70000       0.05000       0.00000       0.10000      80.00000      15.00000       5.00000      99.00000       0.20000       0.10000       0.00000       0.00000       0.00000  
PL                                3                 C    1000.00000       0.50000       0.50000  sandy_loam                 
                                                                                                                               250.00000       1.25000       0.23000      27.20000       3.00000       7.00000      22.80000      70.20000      11.00000       0.20000       0.20000       0.00000       0.00000       0.00000  
                                                                                                                               550.00000       1.59000       0.18000      14.80000       0.40000       6.00000      39.00000      55.00000      11.00000       0.20000       0.30000       0.00000       0.00000       0.00000  
                                                                                                                              1000.00000       1.87000       0.17000       3.30000       0.20000      28.00000      53.30000      18.70000      10.00000       0.20000       0.40000       0.00000       0.00000       0.00000  
PZ                                3                 C    1000.00000       0.50000       0.50000  loamy_sand                 
                                                                                                                               250.00000       1.23000       0.24000      34.90000       3.00000       4.00000      16.40000      79.60000      10.00000       0.20000       0.10000       0.00000       0.00000       0.00000  
                                                                                                                               350.00000       1.56000       0.19000      16.90000       0.60000       6.00000      20.00000      74.00000      10.00000       0.20000       0.20000       0.00000       0.00000       0.00000  
                                                                                                                              1000.00000       1.70000       0.08000      11.00000       0.20000       6.00000      20.00000      74.00000      11.00000       0.20000       0.20000       0.00000       0.00000       0.00000  
RG                                2                 D     450.00000       0.50000       0.45000  clay_loam                  
                                                                                                                               250.00000       1.61000       0.15000      11.70000       2.00000      30.00000      37.80000      32.20000      10.00000       0.20000       0.20000       0.00000       0.00000       0.00000  
                                                                                                                               450.00000       1.61000       0.18000      15.60000       0.40000       7.00000      17.30000      75.70000      10.00000       0.20000       0.20000       0.00000       0.00000       0.00000  
SDd                               1                 D     150.00000       0.50000       0.25000  sandy_loam                 
                                                                                                                               150.00000       1.45000       0.25000      33.00000       2.10000       5.00000      22.40000      72.60000       8.00000       0.20000       0.20000       0.00000       0.00000       0.00000  
SDs                               2                 C     800.00000       0.50000       0.25000  sandy_loam                 
                                                                                                                               150.00000       1.45000       0.25000      33.00000       2.10000       5.00000      22.40000      72.60000       8.00000       0.20000       0.20000       0.00000       0.00000       0.00000  
                                                                                                                               800.00000       1.50000       0.20000      25.00000       2.10000       5.00000      22.40000      72.60000       8.00000       0.20000       0.20000       0.00000       0.00000       0.00000  
STC                               3                 D    1000.00000       0.50000       0.50000  loam                       
                                                                                                                               250.00000       1.21000       0.19000      14.80000       4.00000      17.00000      43.00000      40.00000      11.00000       0.20000       0.20000       0.00000       0.00000       0.00000  
                                                                                                                               550.00000       1.73000       0.11000       5.30000       0.30000      25.00000      65.60000       9.40000      11.00000       0.20000       0.40000       0.00000       0.00000       0.00000  
                                                                                                                              1000.00000       1.96000       0.19000       1.30000       0.10000      39.00000      53.60000       7.40000      10.00000       0.20000       0.40000       0.00000       0.00000       0.00000  
STE                               3                 D    1000.00000       0.50000       0.50000  silty_clay_loam            
                                                                                                                               250.00000       1.53000       0.17000       5.90000       2.90000      35.00000      54.10000      10.90000      10.00000       0.20000       0.30000       0.00000       0.00000       0.00000  
                                                                                                                               550.00000       1.98000       0.01000       0.60000       0.50000      59.00000      35.90000       5.10000      10.00000       0.20000       0.40000       0.00000       0.00000       0.00000  
                                                                                                                              1000.00000       2.09000       0.00000       0.40000       0.30000      59.00000      35.20000       5.80000      10.00000       0.20000       0.40000       0.00000       0.00000       0.00000  
STS                               3                 C    1000.00000       0.50000       0.50000  loam                       
                                                                                                                               250.00000       1.46000       0.16000      17.60000       2.60000      22.00000      31.30000      46.70000      11.00000       0.20000       0.20000       0.00000       0.00000       0.00000  
                                                                                                                               550.00000       1.80000       0.09000       3.20000       0.50000      36.00000      55.70000       8.30000      11.00000       0.20000       0.40000       0.00000       0.00000       0.00000  
                                                                                                                              1000.00000       1.93000       0.12000       1.90000       0.20000      37.00000      54.40000       8.60000      10.00000       0.20000       0.40000       0.00000       0.00000       0.00000  
STP                               3                 D    1000.00000       0.50000       0.50000  loam                       
                                                                                                                               250.00000       1.58000       0.15000      17.30000       1.50000      22.00000      31.30000      46.70000      10.00000       0.20000       0.20000       0.00000       0.00000       0.00000  
                                                                                                                               550.00000       1.80000       0.09000       3.20000       0.50000      36.00000      55.70000       8.30000      10.00000       0.20000       0.40000       0.00000       0.00000       0.00000  
                                                                                                                              1000.00000       1.93000       0.25000       1.90000       0.20000      37.00000      54.40000       8.60000      10.00000       0.20000       0.40000       0.00000       0.00000       0.00000  
STL                               3                 D    1000.00000       0.50000       0.50000  silty_clay_loam            
                                                                                                                               250.00000       1.49000       0.17000       7.20000       2.50000      27.00000      53.90000      19.10000       9.00000       0.20000       0.30000       0.00000       0.00000       0.00000  
                                                                                                                               550.00000       1.60000       0.18000      14.40000       0.20000       4.00000      40.00000      56.00000      10.00000       0.20000       0.30000       0.00000       0.00000       0.00000  
                                                                                                                              1000.00000       1.70000       0.00000      10.50000       0.20000       4.00000      40.00000      56.00000       9.00000       0.20000       0.30000       0.00000       0.00000       0.00000  
STV                               3                 D    1000.00000       0.50000       0.50000  silty_clay_loam            
                                                                                                                               250.00000       1.54000       0.16000       5.70000       2.60000      33.00000      56.20000      10.80000      10.00000       0.20000       0.30000       0.00000       0.00000       0.00000  
                                                                                                                               550.00000       1.80000       0.09000       3.20000       0.50000      36.00000      55.70000       8.30000      11.00000       0.20000       0.40000       0.00000       0.00000       0.00000  
                                                                                                                              1000.00000       1.93000       0.15000       1.90000       0.20000      37.00000      54.40000       8.60000      10.00000       0.20000       0.40000       0.00000       0.00000       0.00000  
STR                               3                 D    1000.00000       0.50000       0.50000  silty_clay_loam            
                                                                                                                               250.00000       1.54000       0.16000       5.70000       2.60000      33.00000      56.20000      10.80000      10.00000       0.20000       0.30000       0.00000       0.00000       0.00000  
                                                                                                                               550.00000       1.80000       0.09000       3.20000       0.50000      36.00000      55.70000       8.30000      11.00000       0.20000       0.40000       0.00000       0.00000       0.00000  
                                                                                                                              1000.00000       1.93000       0.15000       1.90000       0.20000      37.00000      54.40000       8.60000      10.00000       0.20000       0.40000       0.00000       0.00000       0.00000  
TUM                               3                 C    1000.00000       0.50000       0.50000  sandy_loam                 
                                                                                                                               250.00000       1.09000       0.26000      33.20000       4.00000       5.00000      22.40000      72.60000      12.00000       0.20000       0.20000       0.00000       0.00000       0.00000  
                                                                                                                               550.00000       1.55000       0.20000      16.30000       0.70000       4.00000      30.90000      65.10000      12.00000       0.20000       0.30000       0.00000       0.00000       0.00000  
                                                                                                                              1000.00000       1.89000       0.10000       3.00000       0.30000      31.00000      49.00000      20.00000      11.00000       0.20000       0.40000       0.00000       0.00000       0.00000  
