topography.hyd: written by SWAT+ editor v2.1.0 on 2023-06-09 11:34 for SWAT+ rev.60.5.4
name                       slp       slp_len       lat_len      dist_cha         depos  
topohru0001            0.19974      30.00000      30.00000     121.00000       0.00000  
topohru0002            0.22294      30.00000      30.00000     121.00000       0.00000  
topohru0003            0.13663      30.00000      30.00000     121.00000       0.00000  
topohru0004            0.27128      30.00000      30.00000     121.00000       0.00000  
topohru0005            0.16015      30.00000      30.00000     121.00000       0.00000  
topohru0006            0.05789      30.00000      30.00000     121.00000       0.00000  
topohru0007            0.19819      30.00000      30.00000     121.00000       0.00000  
topohru0008            0.09297      30.00000      30.00000     121.00000       0.00000  
topohru0009            0.08523      30.00000      30.00000     121.00000       0.00000  
topohru0010            0.06326      30.00000      30.00000     121.00000       0.00000  
topohru0011            0.04485      30.00000      30.00000     121.00000       0.00000  
topohru0012            0.08201      30.00000      30.00000     121.00000       0.00000  
topohru0013            0.07278      30.00000      30.00000     121.00000       0.00000  
topohru0014            0.01555      30.00000      30.00000     121.00000       0.00000  
topohru0015            0.09299      30.00000      30.00000     121.00000       0.00000  
topohru0016            0.05168      30.00000      30.00000     121.00000       0.00000  
topohru0017            0.03721      30.00000      30.00000     121.00000       0.00000  
topohru0018            0.06941      30.00000      30.00000     121.00000       0.00000  
topohru0019            0.08428      30.00000      30.00000     121.00000       0.00000  
topohru0020            0.06020      30.00000      30.00000     121.00000       0.00000  
topohru0021            0.09756      30.00000      30.00000     121.00000       0.00000  
topohru0022            0.10214      30.00000      30.00000     121.00000       0.00000  
topohru0023            0.07786      30.00000      30.00000     121.00000       0.00000  
topohru0024            0.07174      30.00000      30.00000     121.00000       0.00000  
topohru0025            0.05975      30.00000      30.00000     121.00000       0.00000  
topohru0026            0.06979      30.00000      30.00000     121.00000       0.00000  
topohru0027            0.08809      30.00000      30.00000     121.00000       0.00000  
topohru0028            0.13468      30.00000      30.00000     121.00000       0.00000  
topohru0029            0.09727      30.00000      30.00000     121.00000       0.00000  
topohru0030            0.18104      30.00000      30.00000     121.00000       0.00000  
topohru0031            0.01948      30.00000      30.00000     121.00000       0.00000  
topohru0032            0.12225      30.00000      30.00000     121.00000       0.00000  
topohru0033            0.04421      30.00000      30.00000     121.00000       0.00000  
topohru0034            0.10542      30.00000      30.00000     121.00000       0.00000  
topohru0035            0.08532      30.00000      30.00000     121.00000       0.00000  
topohru0036            0.14144      30.00000      30.00000     121.00000       0.00000  
topohru0037            0.11320      30.00000      30.00000     121.00000       0.00000  
topohru0038            0.15371      30.00000      30.00000     121.00000       0.00000  
topohru0039            0.09857      30.00000      30.00000     121.00000       0.00000  
topohru0040            0.08652      30.00000      30.00000     121.00000       0.00000  
topohru0041            0.22164      30.00000      30.00000     121.00000       0.00000  
topohru0042            0.20204      30.00000      30.00000     121.00000       0.00000  
topohru0043            0.20720      30.00000      30.00000     121.00000       0.00000  
topohru0044            0.11512      30.00000      30.00000     121.00000       0.00000  
topohru0045            0.12807      30.00000      30.00000     121.00000       0.00000  
topohru0046            0.21605      30.00000      30.00000     121.00000       0.00000  
topohru0047            0.08144      30.00000      30.00000     121.00000       0.00000  
topohru0048            0.04480      30.00000      30.00000     121.00000       0.00000  
topohru0049            0.17750      30.00000      30.00000     121.00000       0.00000  
topohru0050            0.15836      30.00000      30.00000     121.00000       0.00000  
topohru0051            0.01862      30.00000      30.00000     121.00000       0.00000  
topohru0052            0.00240      30.00000      30.00000     121.00000       0.00000  
topohru0053            0.04333      30.00000      30.00000     121.00000       0.00000  
topohru0054            0.09645      30.00000      30.00000     121.00000       0.00000  
topohru0055            0.01674      30.00000      30.00000     121.00000       0.00000  
topohru0056            0.02741      30.00000      30.00000     121.00000       0.00000  
topohru0057            0.07543      30.00000      30.00000     121.00000       0.00000  
topohru0058            0.03740      30.00000      30.00000     121.00000       0.00000  
topohru0059            0.02560      30.00000      30.00000     121.00000       0.00000  
topohru0060            0.02744      30.00000      30.00000     121.00000       0.00000  
topohru0061            0.10257      30.00000      30.00000     121.00000       0.00000  
topohru0062            0.02286      30.00000      30.00000     121.00000       0.00000  
topohru0063            0.09035      30.00000      30.00000     121.00000       0.00000  
topohru0064            0.06197      30.00000      30.00000     121.00000       0.00000  
topohru0065            0.02224      30.00000      30.00000     121.00000       0.00000  
topohru0066            0.03439      30.00000      30.00000     121.00000       0.00000  
topohru0067            0.02758      30.00000      30.00000     121.00000       0.00000  
topohru0068            0.03757      30.00000      30.00000     121.00000       0.00000  
topohru0069            0.07713      30.00000      30.00000     121.00000       0.00000  
topohru0070            0.06412      30.00000      30.00000     121.00000       0.00000  
topohru0071            0.03999      30.00000      30.00000     121.00000       0.00000  
topohru0072            0.05897      30.00000      30.00000     121.00000       0.00000  
topohru0073            0.03588      30.00000      30.00000     121.00000       0.00000  
topohru0074            0.16109      30.00000      30.00000     121.00000       0.00000  
topohru0075            0.04887      30.00000      30.00000     121.00000       0.00000  
topohru0076            0.15225      30.00000      30.00000     121.00000       0.00000  
topohru0077            0.09167      30.00000      30.00000     121.00000       0.00000  
topohru0078            0.05306      30.00000      30.00000     121.00000       0.00000  
topohru0079            0.06316      30.00000      30.00000     121.00000       0.00000  
topohru0080            0.03210      30.00000      30.00000     121.00000       0.00000  
topohru0081            0.02893      30.00000      30.00000     121.00000       0.00000  
topohru0082            0.02515      30.00000      30.00000     121.00000       0.00000  
topohru0083            0.04370      30.00000      30.00000     121.00000       0.00000  
topohru0084            0.02752      30.00000      30.00000     121.00000       0.00000  
topohru0085            0.29513      30.00000      30.00000     121.00000       0.00000  
topohru0086            0.03696      30.00000      30.00000     121.00000       0.00000  
topohru0087            0.06688      30.00000      30.00000     121.00000       0.00000  
topohru0088            0.02844      30.00000      30.00000     121.00000       0.00000  
topohru0089            0.02147      30.00000      30.00000     121.00000       0.00000  
topohru0090            0.04306      30.00000      30.00000     121.00000       0.00000  
topohru0091            0.07552      30.00000      30.00000     121.00000       0.00000  
topohru0092            0.04081      30.00000      30.00000     121.00000       0.00000  
topohru0093            0.05436      30.00000      30.00000     121.00000       0.00000  
topohru0094            0.05353      30.00000      30.00000     121.00000       0.00000  
topohru0095            0.05173      30.00000      30.00000     121.00000       0.00000  
topohru0096            0.04712      30.00000      30.00000     121.00000       0.00000  
topohru0097            0.04144      30.00000      30.00000     121.00000       0.00000  
topohru0098            0.06080      30.00000      30.00000     121.00000       0.00000  
topohru0099            0.05282      30.00000      30.00000     121.00000       0.00000  
topohru0100            0.03738      30.00000      30.00000     121.00000       0.00000  
topohru0101            0.02914      30.00000      30.00000     121.00000       0.00000  
topohru0102            0.06696      30.00000      30.00000     121.00000       0.00000  
topohru0103            0.08927      30.00000      30.00000     121.00000       0.00000  
topohru0104            0.03350      30.00000      30.00000     121.00000       0.00000  
topohru0105            0.05853      30.00000      30.00000     121.00000       0.00000  
topohru0106            0.06794      30.00000      30.00000     121.00000       0.00000  
topohru0107            0.06053      30.00000      30.00000     121.00000       0.00000  
topohru0108            0.07901      30.00000      30.00000     121.00000       0.00000  
topohru0109            0.04220      30.00000      30.00000     121.00000       0.00000  
topohru0110            0.12253      30.00000      30.00000     121.00000       0.00000  
topohru0111            0.09994      30.00000      30.00000     121.00000       0.00000  
topohru0112            0.05979      30.00000      30.00000     121.00000       0.00000  
topohru0113            0.03815      30.00000      30.00000     121.00000       0.00000  
topohru0114            0.07211      30.00000      30.00000     121.00000       0.00000  
topohru0115            0.07116      30.00000      30.00000     121.00000       0.00000  
topohru0116            0.11768      30.00000      30.00000     121.00000       0.00000  
topohru0117            0.07122      30.00000      30.00000     121.00000       0.00000  
topohru0118            0.08796      30.00000      30.00000     121.00000       0.00000  
topohru0119            0.10409      30.00000      30.00000     121.00000       0.00000  
topohru0120            0.08061      30.00000      30.00000     121.00000       0.00000  
topohru0121            0.11842      30.00000      30.00000     121.00000       0.00000  
topohru0122            0.13867      30.00000      30.00000     121.00000       0.00000  
topohru0123            0.08686      30.00000      30.00000     121.00000       0.00000  
topohru0124            0.17978      30.00000      30.00000     121.00000       0.00000  
topohru0125            0.08139      30.00000      30.00000     121.00000       0.00000  
topohru0126            0.06475      30.00000      30.00000     121.00000       0.00000  
topohru0127            0.07868      30.00000      30.00000     121.00000       0.00000  
topohru0128            0.16657      30.00000      30.00000     121.00000       0.00000  
topohru0129            0.07994      30.00000      30.00000     121.00000       0.00000  
topohru0130            0.07482      30.00000      30.00000     121.00000       0.00000  
topohru0131            0.07410      30.00000      30.00000     121.00000       0.00000  
topohru0132            0.06657      30.00000      30.00000     121.00000       0.00000  
topohru0133            0.04811      30.00000      30.00000     121.00000       0.00000  
topohru0134            0.06194      30.00000      30.00000     121.00000       0.00000  
topohru0135            0.06941      30.00000      30.00000     121.00000       0.00000  
topohru0136            0.10449      30.00000      30.00000     121.00000       0.00000  
topohru0137            0.16361      30.00000      30.00000     121.00000       0.00000  
topohru0138            0.23705      30.00000      30.00000     121.00000       0.00000  
topohru0139            0.10396      30.00000      30.00000     121.00000       0.00000  
topohru0140            0.07416      30.00000      30.00000     121.00000       0.00000  
topohru0141            0.05668      30.00000      30.00000     121.00000       0.00000  
topohru0142            0.08003      30.00000      30.00000     121.00000       0.00000  
topohru0143            0.05151      30.00000      30.00000     121.00000       0.00000  
topohru0144            0.15987      30.00000      30.00000     121.00000       0.00000  
topohru0145            0.14818      30.00000      30.00000     121.00000       0.00000  
topohru0146            0.09060      30.00000      30.00000     121.00000       0.00000  
topohru0147            0.07349      30.00000      30.00000     121.00000       0.00000  
topohru0148            0.04253      30.00000      30.00000     121.00000       0.00000  
topohru0149            0.06643      30.00000      30.00000     121.00000       0.00000  
topohru0150            0.07671      30.00000      30.00000     121.00000       0.00000  
topohru0151            0.07486      30.00000      30.00000     121.00000       0.00000  
topohru0152            0.04691      30.00000      30.00000     121.00000       0.00000  
topohru0153            0.04692      30.00000      30.00000     121.00000       0.00000  
topohru0154            0.07722      30.00000      30.00000     121.00000       0.00000  
topohru0155            0.06208      30.00000      30.00000     121.00000       0.00000  
topohru0156            0.06324      30.00000      30.00000     121.00000       0.00000  
topohru0157            0.04182      30.00000      30.00000     121.00000       0.00000  
topohru0158            0.02014      30.00000      30.00000     121.00000       0.00000  
topohru0159            0.02099      30.00000      30.00000     121.00000       0.00000  
topohru0160            0.02633      30.00000      30.00000     121.00000       0.00000  
topohru0161            0.04111      30.00000      30.00000     121.00000       0.00000  
topohru0162            0.03242      30.00000      30.00000     121.00000       0.00000  
topohru0163            0.04843      30.00000      30.00000     121.00000       0.00000  
topohru0164            0.02540      30.00000      30.00000     121.00000       0.00000  
topohru0165            0.05717      30.00000      30.00000     121.00000       0.00000  
topohru0166            0.06908      30.00000      30.00000     121.00000       0.00000  
topohru0167            0.03636      30.00000      30.00000     121.00000       0.00000  
topohru0168            0.02186      30.00000      30.00000     121.00000       0.00000  
topohru0169            0.02340      30.00000      30.00000     121.00000       0.00000  
topohru0170            0.03057      30.00000      30.00000     121.00000       0.00000  
topohru0171            0.04241      30.00000      30.00000     121.00000       0.00000  
topohru0172            0.07957      30.00000      30.00000     121.00000       0.00000  
topohru0173            0.03864      30.00000      30.00000     121.00000       0.00000  
topohru0174            0.06704      30.00000      30.00000     121.00000       0.00000  
topohru0175            0.04862      30.00000      30.00000     121.00000       0.00000  
topohru0176            0.04975      30.00000      30.00000     121.00000       0.00000  
topohru0177            0.05999      30.00000      30.00000     121.00000       0.00000  
topohru0178            0.02931      30.00000      30.00000     121.00000       0.00000  
topohru0179            0.01561      30.00000      30.00000     121.00000       0.00000  
topohru0180            0.02697      30.00000      30.00000     121.00000       0.00000  
topohru0181            0.04953      30.00000      30.00000     121.00000       0.00000  
topohru0182            0.11386      30.00000      30.00000     121.00000       0.00000  
topohru0183            0.11123      30.00000      30.00000     121.00000       0.00000  
topohru0184            0.12538      30.00000      30.00000     121.00000       0.00000  
topohru0185            0.15862      30.00000      30.00000     121.00000       0.00000  
topohru0186            0.08265      30.00000      30.00000     121.00000       0.00000  
topohru0187            0.09212      30.00000      30.00000     121.00000       0.00000  
topohru0188            0.11362      30.00000      30.00000     121.00000       0.00000  
topohru0189            0.07159      30.00000      30.00000     121.00000       0.00000  
topohru0190            0.08989      30.00000      30.00000     121.00000       0.00000  
topohru0191            0.05943      30.00000      30.00000     121.00000       0.00000  
topohru0192            0.06252      30.00000      30.00000     121.00000       0.00000  
topohru0193            0.05861      30.00000      30.00000     121.00000       0.00000  
topohru0194            0.05299      30.00000      30.00000     121.00000       0.00000  
topohru0195            0.10582      30.00000      30.00000     121.00000       0.00000  
topohru0196            0.06193      30.00000      30.00000     121.00000       0.00000  
topohru0197            0.01899      30.00000      30.00000     121.00000       0.00000  
topohru0198            0.05750      30.00000      30.00000     121.00000       0.00000  
topohru0199            0.11572      30.00000      30.00000     121.00000       0.00000  
topohru0200            0.04736      30.00000      30.00000     121.00000       0.00000  
topohru0201            0.06613      30.00000      30.00000     121.00000       0.00000  
topohru0202            0.07071      30.00000      30.00000     121.00000       0.00000  
topohru0203            0.04920      30.00000      30.00000     121.00000       0.00000  
topohru0204            0.02967      30.00000      30.00000     121.00000       0.00000  
topohru0205            0.04515      30.00000      30.00000     121.00000       0.00000  
topohru0206            0.09153      30.00000      30.00000     121.00000       0.00000  
topohru0207            0.21247      30.00000      30.00000     121.00000       0.00000  
topohru0208            0.11305      30.00000      30.00000     121.00000       0.00000  
topohru0209            0.15739      30.00000      30.00000     121.00000       0.00000  
topohru0210            0.09862      30.00000      30.00000     121.00000       0.00000  
topohru0211            0.01449      30.00000      30.00000     121.00000       0.00000  
topohru0212            0.13026      30.00000      30.00000     121.00000       0.00000  
topohru0213            0.15645      30.00000      30.00000     121.00000       0.00000  
topohru0214            0.16071      30.00000      30.00000     121.00000       0.00000  
topohru0215            0.07665      30.00000      30.00000     121.00000       0.00000  
topohru0216            0.13572      30.00000      30.00000     121.00000       0.00000  
topohru0217            0.07657      30.00000      30.00000     121.00000       0.00000  
topohru0218            0.09072      30.00000      30.00000     121.00000       0.00000  
topohru0219            0.17134      30.00000      30.00000     121.00000       0.00000  
topohru0220            0.06934      30.00000      30.00000     121.00000       0.00000  
topohru0221            0.08452      30.00000      30.00000     121.00000       0.00000  
topohru0222            0.04868      30.00000      30.00000     121.00000       0.00000  
topohru0223            0.16260      30.00000      30.00000     121.00000       0.00000  
topohru0224            0.30839      30.00000      30.00000     121.00000       0.00000  
topohru0225            0.15995      30.00000      30.00000     121.00000       0.00000  
topohru0226            0.00019      30.00000      30.00000     121.00000       0.00000  
topohru0227            0.00019      30.00000      30.00000     121.00000       0.00000  
topohru0228            0.00111      30.00000      30.00000     121.00000       0.00000  
topohru0229            0.41714      30.00000      30.00000     121.00000       0.00000  
topohru0230            0.02291      30.00000      30.00000     121.00000       0.00000  
topohru0231            0.00019      30.00000      30.00000     121.00000       0.00000  
topohru0232            0.00067      30.00000      30.00000     121.00000       0.00000  
topohru0233            0.04178      30.00000      30.00000     121.00000       0.00000  
topohru0234            0.00019      30.00000      30.00000     121.00000       0.00000  
topohru0235            0.00017      30.00000      30.00000     121.00000       0.00000  
topohru0236            0.37725      30.00000      30.00000     121.00000       0.00000  
topohru0237            0.31259      30.00000      30.00000     121.00000       0.00000  
topohru0238            0.39568      30.00000      30.00000     121.00000       0.00000  
topohru0239            0.16127      30.00000      30.00000     121.00000       0.00000  
topohru0240            0.10698      30.00000      30.00000     121.00000       0.00000  
topohru0241            0.09109      30.00000      30.00000     121.00000       0.00000  
topohru0242            0.27541      30.00000      30.00000     121.00000       0.00000  
topohru0243            0.23460      30.00000      30.00000     121.00000       0.00000  
topohru0244            0.14992      30.00000      30.00000     121.00000       0.00000  
topohru0245            0.12967      30.00000      30.00000     121.00000       0.00000  
topohru0246            0.24015      30.00000      30.00000     121.00000       0.00000  
topohru0247            0.10068      30.00000      30.00000     121.00000       0.00000  
topohru0248            0.11701      30.00000      30.00000     121.00000       0.00000  
topohru0249            0.32890      30.00000      30.00000     121.00000       0.00000  
topohru0250            0.33080      30.00000      30.00000     121.00000       0.00000  
topohru0251            0.11964      30.00000      30.00000     121.00000       0.00000  
topohru0252            0.11773      30.00000      30.00000     121.00000       0.00000  
topohru0253            0.08258      30.00000      30.00000     121.00000       0.00000  
topohru0254            0.14828      30.00000      30.00000     121.00000       0.00000  
topohru0255            0.16337      30.00000      30.00000     121.00000       0.00000  
topohru0256            0.16769      30.00000      30.00000     121.00000       0.00000  
topohru0257            0.14546      30.00000      30.00000     121.00000       0.00000  
topohru0258            0.35167      30.00000      30.00000     121.00000       0.00000  
topohru0259            0.05349      30.00000      30.00000     121.00000       0.00000  
topohru0260            0.34214      30.00000      30.00000     121.00000       0.00000  
topohru0261            0.11856      30.00000      30.00000     121.00000       0.00000  
topohru0262            0.15260      30.00000      30.00000     121.00000       0.00000  
topohru0263            0.10113      30.00000      30.00000     121.00000       0.00000  
topohru0264            0.11705      30.00000      30.00000     121.00000       0.00000  
topohru0265            0.07086      30.00000      30.00000     121.00000       0.00000  
topohru0266            0.09743      30.00000      30.00000     121.00000       0.00000  
topohru0267            0.22632      30.00000      30.00000     121.00000       0.00000  
topohru0268            0.01888      30.00000      30.00000     121.00000       0.00000  
topohru0269            0.17523      30.00000      30.00000     121.00000       0.00000  
topohru0270            0.08648      30.00000      30.00000     121.00000       0.00000  
topohru0271            0.03590      30.00000      30.00000     121.00000       0.00000  
topohru0272            0.05759      30.00000      30.00000     121.00000       0.00000  
topohru0273            0.16659      30.00000      30.00000     121.00000       0.00000  
topohru0274            0.18456      30.00000      30.00000     121.00000       0.00000  
topohru0275            0.11275      30.00000      30.00000     121.00000       0.00000  
topohru0276            0.30140      30.00000      30.00000     121.00000       0.00000  
topohru0277            0.05738      30.00000      30.00000     121.00000       0.00000  
topohru0278            0.09319      30.00000      30.00000     121.00000       0.00000  
topohru0279            0.13009      30.00000      30.00000     121.00000       0.00000  
topohru0280            0.35635      30.00000      30.00000     121.00000       0.00000  
topohru0281            0.12050      30.00000      30.00000     121.00000       0.00000  
topohru0282            0.08118      30.00000      30.00000     121.00000       0.00000  
topohru0283            0.08690      30.00000      30.00000     121.00000       0.00000  
topohru0284            0.06735      30.00000      30.00000     121.00000       0.00000  
topohru0285            0.32483      30.00000      30.00000     121.00000       0.00000  
topohru0286            0.26458      30.00000      30.00000     121.00000       0.00000  
topohru0287            0.38072      30.00000      30.00000     121.00000       0.00000  
topohru0288            0.32955      30.00000      30.00000     121.00000       0.00000  
topohru0289            0.27995      30.00000      30.00000     121.00000       0.00000  
topohru0290            0.24274      30.00000      30.00000     121.00000       0.00000  
topohru0291            0.22362      30.00000      30.00000     121.00000       0.00000  
topohru0292            0.23349      30.00000      30.00000     121.00000       0.00000  
topohru0293            0.23936      30.00000      30.00000     121.00000       0.00000  
topohru0294            0.05792      30.00000      30.00000     121.00000       0.00000  
topohru0295            0.12306      30.00000      30.00000     121.00000       0.00000  
topohru0296            0.14026      30.00000      30.00000     121.00000       0.00000  
topohru0297            0.13100      30.00000      30.00000     121.00000       0.00000  
topohru0298            0.14317      30.00000      30.00000     121.00000       0.00000  
topohru0299            0.15088      30.00000      30.00000     121.00000       0.00000  
topohru0300            0.21844      30.00000      30.00000     121.00000       0.00000  
topohru0301            0.20015      30.00000      30.00000     121.00000       0.00000  
topohru0302            0.06130      30.00000      30.00000     121.00000       0.00000  
topohru0303            0.13453      30.00000      30.00000     121.00000       0.00000  
topohru0304            0.05067      30.00000      30.00000     121.00000       0.00000  
topohru0305            0.02783      30.00000      30.00000     121.00000       0.00000  
topohru0306            0.06278      30.00000      30.00000     121.00000       0.00000  
topohru0307            0.17701      30.00000      30.00000     121.00000       0.00000  
topohru0308            0.13062      30.00000      30.00000     121.00000       0.00000  
topohru0309            0.23742      30.00000      30.00000     121.00000       0.00000  
topohru0310            0.20428      30.00000      30.00000     121.00000       0.00000  
topohru0311            0.09443      30.00000      30.00000     121.00000       0.00000  
topohru0312            0.01316      30.00000      30.00000     121.00000       0.00000  
topohru0313            0.17406      30.00000      30.00000     121.00000       0.00000  
topohru0314            0.18435      30.00000      30.00000     121.00000       0.00000  
topohru0315            0.20862      30.00000      30.00000     121.00000       0.00000  
topohru0316            0.04875      30.00000      30.00000     121.00000       0.00000  
topohru0317            0.02326      30.00000      30.00000     121.00000       0.00000  
topohru0318            0.15423      30.00000      30.00000     121.00000       0.00000  
topohru0319            0.05005      30.00000      30.00000     121.00000       0.00000  
topohru0320            0.16589      30.00000      30.00000     121.00000       0.00000  
topohru0321            0.04220      30.00000      30.00000     121.00000       0.00000  
topohru0322            0.03003      30.00000      30.00000     121.00000       0.00000  
topohru0323            0.08117      30.00000      30.00000     121.00000       0.00000  
topohru0324            0.01495      30.00000      30.00000     121.00000       0.00000  
topohru0325            0.01117      30.00000      30.00000     121.00000       0.00000  
topohru0326            0.05580      30.00000      30.00000     121.00000       0.00000  
topohru0327            0.05600      30.00000      30.00000     121.00000       0.00000  
topohru0328            0.07035      30.00000      30.00000     121.00000       0.00000  
topohru0329            0.08471      30.00000      30.00000     121.00000       0.00000  
topohru0330            0.08490      30.00000      30.00000     121.00000       0.00000  
topohru0331            0.08749      30.00000      30.00000     121.00000       0.00000  
topohru0332            0.11196      30.00000      30.00000     121.00000       0.00000  
topohru0333            0.04034      30.00000      30.00000     121.00000       0.00000  
topohru0334            0.03268      30.00000      30.00000     121.00000       0.00000  
topohru0335            0.07156      30.00000      30.00000     121.00000       0.00000  