'atmodep.cli' file was written by SWATprepR R package 2024-03-03 08:45:19.155212
NUM_STA	TIMESTEP	MO_INIT	YR_INIT	NUM_AA
1	yr	0	1990	396
atmodep.cli
0.486	0.925	2.057	2.889	3.791	3.134	4.518	3.900	2.822	1.177	0.595	0.324	0.409	2.677	2.109	4.327	2.929	3.444	3.956	6.641	0.962	0.755	0.751	1.030	0.726	0.754	2.342	3.213	6.848	1.565	3.866	3.062	1.495	0.660	0.980	0.249	2.125	1.015	2.394	4.487	3.401	4.079	2.345	1.467	1.300	0.599	1.538	1.216	0.269	1.277	4.075	2.777	2.940	4.772	3.848	2.844	0.659	1.966	0.446	0.798	0.358	0.898	2.105	3.195	2.278	2.260	2.926	2.423	1.129	1.900	0.857	0.485	0.547	1.462	6.765	4.326	2.581	1.797	2.435	2.211	2.266	0.630	0.461	0.547	0.506	2.170	6.375	3.279	4.947	1.340	3.675	2.416	5.214	3.901	0.497	0.329	0.572	1.301	3.901	2.243	3.994	2.453	3.177	4.940	0.928	0.629	2.703	1.633	0.255	1.365	1.493	3.130	3.585	4.011	6.946	2.681	1.356	0.835	0.757	0.579	1.992	3.508	1.448	2.071	4.430	4.515	2.835	1.838	1.227	0.558	0.367	0.784	0.380	1.086	1.278	3.428	4.581	4.200	2.926	1.706	1.172	1.068	1.971	2.679	0.676	0.544	1.787	3.409	1.650	2.646	2.602	1.493	1.518	1.573	0.402	1.145	0.926	3.452	7.330	3.763	5.941	2.496	5.430	2.045	3.162	0.772	0.616	0.245	1.614	0.807	2.324	3.941	2.475	1.710	5.052	3.216	2.504	0.887	0.700	0.297	1.996	3.201	4.009	1.876	3.775	4.016	3.006	2.281	1.374	0.659	1.369	0.457	0.395	1.043	2.294	2.896	4.534	5.591	3.276	2.165	0.663	0.857	0.848	0.429	0.565	2.282	2.476	6.818	2.036	1.756	5.673	1.388	1.732	1.958	0.362	2.001	0.202	0.848	2.833	1.880	2.178	1.557	1.512	3.046	2.123	0.784	0.284	0.279	0.553	0.302	1.057	1.683	6.696	2.343	1.985	6.410	0.768	2.024	0.357	0.288	0.451	0.636	1.527	2.830	1.557	3.269	2.928	0.969	0.880	0.616	0.355	0.620	0.869	1.392	1.508	5.787	4.123	2.133	2.869	4.248	1.166	0.987	0.394	0.969	0.928	1.422	1.728	1.821	1.939	2.219	2.921	3.519	0.875	0.608	0.316	0.465	0.453	0.896	1.017	1.917	1.462	2.928	2.663	1.719	1.631	0.645	0.856	0.203	0.222	0.376	1.208	3.129	2.239	2.158	2.168	1.556	1.605	0.588	0.374	0.914	0.279	0.435	1.898	2.983	4.383	3.124	5.836	2.976	1.223	0.805	0.891	1.487	0.509	0.461	2.022	4.131	1.515	1.607	2.598	1.580	2.540	1.183	0.619	2.035	1.187	0.597	2.683	2.710	2.526	1.050	2.027	2.947	0.955	1.784	0.418	0.230	0.557	2.665	1.047	1.628	1.794	3.076	2.587	2.399	1.162	0.612	0.520	0.908	1.157	0.190	1.457	1.429	2.306	2.958	2.724	2.281	1.157	0.927	0.311	0.273	0.702	2.292	1.966	2.060	1.103	1.091	2.714	1.012	0.931	0.520	3.402	0.284	0.209	0.425	6.042	1.848	1.472	7.487	1.641	2.181	1.375	0.912	0.522	0.859	0.431	0.591	3.622	2.214	2.769	2.041	4.904	1.898	0.792	0.876	0.408	0.288	NH4_RF
 5.478	 4.671	 7.552	 6.279	 7.096	 7.512	10.137	 9.959	 8.755	 5.626	 3.553	 1.969	 4.007	15.172	 7.656	10.316	 6.035	 7.670	10.512	20.998	 3.812	 3.792	 4.156	 6.536	 6.035	 5.515	 8.081	 7.690	12.510	 4.153	10.501	 9.159	 6.841	 3.657	 5.268	 1.955	19.388	 5.946	 8.432	10.345	 6.920	10.169	 6.016	 5.091	 5.394	 2.674	 5.661	 7.613	 2.120	 6.590	17.065	 5.712	 6.093	 8.774	11.196	 8.829	 2.329	 8.367	 3.419	 5.786	 3.381	 5.421	 7.845	 6.808	 4.319	 5.820	 9.014	 6.916	 4.719	 5.942	 3.463	 3.033	 3.885	 7.132	18.634	 9.803	 4.456	 4.275	 5.414	 5.537	 7.274	 3.243	 2.448	 2.392	 2.474	15.905	19.063	 4.750	 7.044	 3.368	 8.525	 6.737	14.610	13.725	 2.608	 2.209	 3.892	 6.459	10.968	 4.061	 6.172	 5.349	 8.203	11.311	 3.166	 2.832	16.302	 7.753	 1.893	 7.082	 5.001	 6.236	 6.478	 7.183	14.203	 5.759	 4.128	 2.731	 3.595	 2.744	12.095	16.888	 3.235	 4.206	 6.446	 7.931	 5.789	 3.862	 3.573	 2.303	 1.712	 3.573	 2.979	 5.356	 3.497	 6.016	 7.657	 7.700	 6.346	 4.607	 3.623	 4.446	 5.680	 9.857	 3.280	 3.092	 5.697	 6.273	 2.240	 4.545	 5.705	 3.137	 4.876	 4.385	 1.737	 4.551	 3.829	19.042	22.594	 6.270	 7.441	 4.456	10.158	 5.384	 6.927	 2.809	 2.605	 1.739	 8.412	 2.578	 5.742	 6.965	 4.083	 3.736	 9.695	 6.319	 5.179	 2.921	 2.400	 2.029	 7.748	10.365	11.366	 4.151	 5.768	 8.639	 5.308	 4.986	 4.336	 2.101	 5.248	 2.637	 2.351	 4.629	 6.870	 5.619	 6.215	 9.680	 6.089	 4.423	 2.095	 3.401	 4.691	 1.839	 2.908	 9.785	 4.927	11.681	 2.537	 3.392	 7.321	 3.251	 4.171	 6.989	 1.632	 7.461	 1.216	 4.408	 6.300	 2.524	 3.262	 2.875	 3.054	 5.527	 4.504	 2.297	 1.061	 1.443	 2.794	 1.447	 3.030	 2.237	 7.104	 3.254	 3.569	 9.562	 2.052	 4.524	 1.424	 1.374	 2.218	 2.214	 3.701	 4.133	 1.948	 4.708	 4.627	 1.682	 1.741	 1.754	 1.187	 1.822	 4.263	 3.528	 3.086	 7.010	 4.684	 2.832	 4.762	 5.710	 2.243	 2.362	 1.094	 4.126	 4.541	 6.627	 5.210	 2.223	 2.005	 3.160	 4.480	 5.187	 1.796	 1.519	 1.155	 2.281	 2.550	 3.623	 1.720	 2.322	 1.428	 3.662	 3.892	 2.540	 2.899	 1.759	 1.997	 0.902	 0.974	 1.232	 1.961	 3.498	 2.426	 2.832	 2.767	 2.933	 3.322	 1.430	 1.183	 2.432	 1.752	 1.466	 2.733	 3.529	 3.613	 3.373	 6.283	 3.799	 2.161	 1.533	 1.640	 7.807	 2.099	 1.460	 3.433	 4.588	 1.463	 2.096	 3.666	 2.482	 3.807	 2.383	 1.765	 8.343	 5.147	 2.381	 3.725	 3.181	 2.141	 1.199	 2.433	 3.958	 1.707	 3.415	 1.280	 1.036	 2.377	 7.113	 1.992	 2.099	 1.584	 3.379	 3.124	 3.165	 1.948	 1.057	 1.263	 3.878	 5.451	 0.809	 2.935	 1.776	 2.320	 3.968	 3.844	 3.246	 1.928	 1.892	 0.693	 1.296	 1.943	 5.686	 1.383	 1.636	 1.443	 1.239	 3.349	 1.561	 1.491	 1.402	 5.531	 0.750	 0.745	 1.164	11.078	 1.753	 1.427	 6.777	 2.319	 2.879	 1.842	 1.589	 1.172	 2.415	 2.158	 1.544	 5.402	 1.919	 2.093	 1.829	 4.680	 1.883	 1.391	 1.970	 0.895	 1.027	NO3_RF
0.379	0.391	0.801	0.975	1.087	0.969	1.361	1.159	0.938	0.618	0.495	0.366	0.316	0.381	0.895	1.053	1.023	1.084	1.192	1.100	0.741	0.688	0.551	0.440	0.408	0.475	0.797	1.109	1.197	0.705	1.229	1.080	0.773	0.514	0.528	0.463	0.318	0.414	0.875	1.044	1.090	0.980	1.047	0.987	0.677	0.497	0.552	0.444	0.275	0.449	0.959	0.972	1.101	1.108	1.057	1.080	0.677	0.677	0.502	0.416	0.266	0.412	0.705	0.944	1.057	0.955	1.038	0.833	0.715	0.885	0.504	0.448	0.338	0.456	0.871	1.033	1.113	0.955	1.095	0.843	0.780	0.570	0.396	0.517	0.407	0.410	0.850	1.010	1.166	0.816	1.076	0.931	1.085	0.766	0.460	0.432	0.384	0.467	0.930	0.928	1.221	0.896	1.390	1.127	0.777	0.513	0.488	0.527	0.317	0.360	0.821	1.050	1.205	0.925	1.114	1.015	0.839	0.708	0.511	0.451	0.324	0.448	0.703	0.824	1.088	1.002	1.080	1.053	0.987	0.475	0.391	0.496	0.353	0.352	0.716	0.989	1.151	0.943	0.977	1.181	0.704	0.685	0.515	0.490	0.395	0.353	0.832	0.923	1.013	0.920	0.991	0.769	0.604	0.761	0.404	0.482	0.370	0.471	0.975	1.007	1.081	0.944	1.039	0.709	0.916	0.537	0.581	0.379	0.373	0.398	0.812	0.951	1.031	0.852	1.160	0.929	0.853	0.704	0.398	0.435	0.281	0.361	0.835	1.049	1.095	0.779	1.048	0.870	0.621	0.572	0.436	0.417	0.317	0.409	0.748	0.873	1.131	0.805	0.801	0.682	0.776	0.628	0.430	0.450	0.312	0.385	0.762	1.030	0.905	0.823	1.116	0.792	0.829	0.717	0.381	0.416	0.300	0.436	0.715	0.798	0.866	0.691	0.880	1.008	0.597	0.591	0.341	0.377	0.364	0.329	0.722	0.740	1.055	0.818	1.062	0.986	0.606	0.550	0.456	0.371	0.406	0.366	0.620	0.823	0.700	0.777	0.886	0.779	0.629	0.648	0.351	0.421	0.331	0.352	0.683	0.976	0.982	0.739	0.886	1.059	0.749	0.756	0.483	0.337	0.222	0.325	0.879	0.750	0.888	0.839	0.905	0.985	0.683	0.485	0.408	0.366	0.262	0.294	0.683	0.908	0.701	0.805	0.744	0.955	0.777	0.520	0.386	0.355	0.274	0.282	0.672	0.797	0.871	0.594	0.778	0.565	0.658	0.523	0.373	0.366	0.225	0.312	0.660	0.832	0.971	0.737	1.071	0.818	0.535	0.533	0.395	0.371	0.268	0.298	0.622	0.832	0.861	0.702	0.896	0.968	0.548	0.494	0.438	0.340	0.285	0.317	0.704	0.795	0.870	0.704	0.886	0.904	0.547	0.649	0.371	0.291	0.277	0.343	0.662	0.881	0.725	0.729	0.802	0.753	0.670	0.534	0.391	0.386	0.239	0.338	0.587	0.712	0.832	0.811	0.751	0.791	0.686	0.514	0.333	0.300	0.396	0.346	0.842	0.865	0.536	0.581	0.787	0.781	0.651	0.516	0.664	0.434	0.236	0.360	0.664	0.695	0.709	0.722	0.762	0.885	0.586	0.561	0.378	0.409	0.310	0.334	0.745	0.917	0.834	0.697	0.861	0.877	0.582	0.634	0.416	0.410	NH4_DRY
2.437	2.799	2.626	2.436	4.026	3.955	5.008	4.365	4.342	3.461	2.449	1.216	1.554	2.194	2.677	2.767	3.611	4.681	5.099	5.027	4.411	3.783	2.563	1.972	2.884	3.746	3.202	2.915	4.024	3.926	5.726	5.453	5.040	2.997	2.835	2.275	2.802	3.504	3.054	2.862	3.755	4.520	4.826	4.572	3.502	3.044	2.647	2.141	2.039	2.566	3.557	2.549	3.724	4.738	4.546	4.432	3.703	3.890	2.842	2.213	1.754	2.632	2.360	2.578	3.740	4.441	4.497	3.206	3.666	6.027	2.146	2.059	2.114	2.724	2.500	2.756	3.686	4.086	4.097	3.382	3.364	3.105	1.937	2.109	2.165	2.968	2.808	2.357	3.318	3.591	3.908	3.331	5.161	3.965	1.994	2.094	2.617	3.192	2.451	2.220	3.385	3.727	4.373	3.690	3.333	2.967	2.122	2.259	1.875	1.882	2.277	2.375	3.258	3.215	3.825	3.170	3.374	3.484	1.889	1.775	1.912	2.434	1.958	1.830	2.845	3.519	3.063	3.294	3.233	2.354	1.383	1.619	1.190	1.522	1.810	1.962	3.083	3.266	3.199	3.475	2.551	3.270	2.083	1.906	2.390	1.881	2.008	1.887	2.748	3.328	3.105	2.386	2.533	2.822	1.571	1.815	1.749	2.060	2.370	1.928	2.632	3.518	3.291	2.662	3.139	2.209	1.840	1.405	1.663	1.693	2.046	1.832	2.447	3.130	3.283	2.583	3.040	2.488	1.376	1.457	1.578	1.662	2.063	1.864	2.619	3.086	3.015	2.536	2.805	2.883	1.746	1.497	1.250	1.432	1.325	1.711	2.627	2.783	2.828	1.850	3.072	2.542	1.404	1.544	1.708	1.872	1.708	2.036	2.137	2.547	3.021	2.326	2.592	2.837	1.513	1.502	1.450	1.962	1.386	1.453	2.134	2.592	2.697	2.306	1.853	2.226	1.127	1.237	1.452	1.145	0.879	1.121	2.173	2.253	2.425	2.312	2.036	1.954	1.161	1.297	1.750	1.233	1.246	1.480	1.659	2.221	2.290	1.932	1.900	1.929	0.962	1.242	1.568	1.476	1.504	1.556	1.991	1.942	2.136	2.259	2.423	2.222	1.614	0.918	0.856	0.741	0.902	1.050	1.891	2.168	2.466	2.292	1.734	1.857	1.071	0.954	1.135	0.894	1.126	1.274	1.485	1.884	1.850	2.132	2.030	1.445	0.955	1.073	1.132	0.947	1.284	1.199	1.546	1.622	1.814	1.338	1.725	1.589	1.111	1.073	0.966	0.927	1.159	1.251	1.604	1.689	2.231	1.889	1.313	1.472	1.299	1.403	1.110	0.916	1.022	1.101	1.512	1.588	1.892	1.795	1.542	1.340	1.113	1.157	0.806	0.731	1.031	1.006	1.516	1.761	1.753	1.717	1.360	1.794	0.985	0.782	0.838	0.748	0.933	1.127	1.380	1.759	1.713	1.394	1.645	1.279	0.889	1.008	0.855	1.152	0.961	0.955	1.513	1.707	1.726	1.404	1.532	1.280	0.709	0.823	0.804	0.732	0.585	0.886	1.247	1.554	1.908	1.564	1.592	1.298	1.152	0.429	0.375	0.492	0.783	0.916	1.255	1.710	1.544	1.682	1.538	1.286	0.876	0.860	0.992	0.784	1.158	1.065	1.513	1.566	1.666	1.585	1.233	1.435	0.848	1.018	NO3_DRY
