hru.con: written by SWAT+ editor v2.1.0 on 2024-02-20 09:21 for SWAT+ rev.60.5.4
      id  name                gis_id          area           lat           lon          elev       hru               wst       cst      ovfl      rule   out_tot  
       1  hru0001                  1       0.76279      45.70575       9.81739     364.90688         1      s45784n9822e         0         0         0         0  
       2  hru0002                  2       0.74251      45.70370       9.82486     293.29695         2      s45784n9822e         0         0         0         0  
       3  hru0003                  3       1.06522      45.70477       9.83145     290.39384         3      s45784n9822e         0         0         0         0  
       4  hru0004                  4       0.64725      45.70543       9.81788     358.58973         4      s45784n9822e         0         0         0         0  
       5  hru0005                  5       0.13820      45.70562       9.81533     397.02417         5      s45784n9822e         0         0         0         0  
       6  hru0006                  6       0.68646      45.70678       9.83033     296.69354         6      s45784n9822e         0         0         0         0  
       7  hru0007                  7       0.55122      45.70570       9.81594     387.45168         7      s45784n9822e         0         0         0         0  
       8  hru0008                  8       2.23802      45.70665       9.82704     302.75463         8      s45784n9822e         0         0         0         0  
       9  hru0009                  9       1.61555      45.70659       9.82227     301.64085         9      s45784n9822e         0         0         0         0  
      10  hru0010                 10       0.90030      45.70614       9.82294     299.11029        10      s45784n9822e         0         0         0         0  
      11  hru0011                 11       0.93716      45.70434       9.81765     368.60610        11      s45784n9822e         0         0         0         0  
      12  hru0012                 12       1.19073      45.70480       9.81846     347.16637        12      s45784n9822e         0         0         0         0  
      13  hru0013                 13       0.00953      45.70371       9.82592     288.54310        13      s45784n9822e         0         0         0         0  
      14  hru0014                 14       0.83893      45.70428       9.82130     329.99344        14      s45784n9822e         0         0         0         0  
      15  hru0015                 15       0.21376      45.70400       9.82255     307.57600        15      s45784n9822e         0         0         0         0  
      16  hru0016                 16       0.67041      45.70392       9.81961     345.00427        16      s45784n9822e         0         0         0         0  
      17  hru0017                 17       3.73880      45.70486       9.82122     314.37498        17      s45784n9822e         0         0         0         0  
      18  hru0018                 18       2.02301      45.70617       9.81929     316.88162        18      s45784n9822e         0         0         0         0  
      19  hru0019                 19       0.94428      45.70576       9.82206     295.94904        19      s45784n9822e         0         0         0         0  
      20  hru0020                 20       0.42244      45.70612       9.83146     296.48215        20      s45784n9822e         0         0         0         0  
      21  hru0021                 21       0.42651      45.70411       9.83094     282.19308        21      s45784n9822e         0         0         0         0  
      22  hru0022                 22       1.01872      45.71105       9.80414     399.98737        22      s45784n9822e         0         0         0         0  
      23  hru0023                 23       0.43862      45.71059       9.79873     409.47300        23      s45784n9822e         0         0         0         0  
      24  hru0024                 24       0.45599      45.71060       9.79613     438.96284        24      s45784n9822e         0         0         0         0  
      25  hru0025                 25       1.07384      45.71308       9.79648     422.34548        25      s45784n9822e         0         0         0         0  
      26  hru0026                 26       0.75898      45.71333       9.79880     401.11976        26      s45784n9822e         0         0         0         0  
      27  hru0027                 27       0.08528      45.71067       9.80581     388.07047        27      s45784n9822e         0         0         0         0  
      28  hru0028                 28       0.05465      45.71069       9.80488     399.11499        28      s45784n9822e         0         0         0         0  
      29  hru0029                 29       0.19928      45.71082       9.80366     408.46903        29      s45784n9822e         0         0         0         0  
      30  hru0030                 30       0.68584      45.71403       9.79964     393.61278        30      s45784n9822e         0         0         0         0  
      31  hru0031                 31       0.22225      45.71087       9.80599     383.63469        31      s45784n9822e         0         0         0         0  
      32  hru0032                 32       3.86011      45.71113       9.80045     395.73651        32      s45784n9822e         0         0         0         0  
      33  hru0033                 33       2.88474      45.71107       9.79709     418.55812        33      s45784n9822e         0         0         0         0  
      34  hru0034                 34       1.21979      45.71300       9.79771     404.25320        34      s45784n9822e         0         0         0         0  
      35  hru0035                 35       0.64096      45.71209       9.79723     404.19795        35      s45784n9822e         0         0         0         0  
      36  hru0036                 36       4.19802      45.71264       9.79978     371.00017        36      s45784n9822e         0         0         0         0  
      37  hru0037                 37       3.54761      45.71235       9.80212     356.35276        37      s45784n9822e         0         0         0         0  
      38  hru0038                 38       3.18963      45.71408       9.80889     343.14643        38      s45784n9822e         0         0         0         0  
      39  hru0039                 39       6.82036      45.71681       9.80398     391.07618        39      s45784n9822e         0         0         0         0  
      40  hru0040                 40       1.22508      45.71640       9.79866     460.35992        40      s45784n9822e         0         0         0         0  
      41  hru0041                 41       1.02887      45.71720       9.80721     408.01678        41      s45784n9822e         0         0         0         0  
      42  hru0042                 42       2.02841      45.71729       9.80927     363.57755        42      s45784n9822e         0         0         0         0  
      43  hru0043                 43       0.50396      45.71834       9.80895     387.40961        43      s45784n9822e         0         0         0         0  
      44  hru0044                 44       1.38157      45.71371       9.80758     344.52859        44      s45784n9822e         0         0         0         0  
      45  hru0045                 45       1.58781      45.71595       9.80049     419.48568        45      s45784n9822e         0         0         0         0  
      46  hru0046                 46       1.10818      45.71500       9.80287     376.44157        46      s45784n9822e         0         0         0         0  
      47  hru0047                 47       1.37979      45.71608       9.79824     457.34055        47      s45784n9822e         0         0         0         0  
      48  hru0048                 48       1.06112      45.71656       9.80485     376.92512        48      s45784n9822e         0         0         0         0  
      49  hru0049                 49       2.46372      45.71477       9.80088     388.18738        49      s45784n9822e         0         0         0         0  
      50  hru0050                 50       0.98926      45.71868       9.80191     461.92044        50      s45784n9822e         0         0         0         0  
      51  hru0051                 51       0.60011      45.71801       9.80250     438.05236        51      s45784n9822e         0         0         0         0  
      52  hru0052                 52       1.11906      45.71713       9.80040     451.72396        52      s45784n9822e         0         0         0         0  
      53  hru0053                 53       0.74324      45.71506       9.80536     354.11566        53      s45784n9822e         0         0         0         0  
      54  hru0054                 54       2.62924      45.71387       9.80109     367.79795        54      s45784n9822e         0         0         0         0  
      55  hru0055                 55       3.05129      45.71500       9.80387     368.16949        55      s45784n9822e         0         0         0         0  
      56  hru0056                 56       2.88793      45.71450       9.80279     363.00830        56      s45784n9822e         0         0         0         0  
      57  hru0057                 57       2.03874      45.71557       9.80643     377.76712        57      s45784n9822e         0         0         0         0  
      58  hru0058                 58       0.62961      45.71630       9.79975     442.08650        58      s45784n9822e         0         0         0         0  
      59  hru0059                 59       0.69480      45.71471       9.79729     453.80961        59      s45784n9822e         0         0         0         0  
      60  hru0060                 60       0.94547      45.71390       9.79733     430.36891        60      s45784n9822e         0         0         0         0  
      61  hru0061                 61       0.75916      45.71436       9.79820     431.00950        61      s45784n9822e         0         0         0         0  
      62  hru0062                 62       0.73613      45.71478       9.79857     429.21448        62      s45784n9822e         0         0         0         0  
      63  hru0063                 63       0.45664      45.71538       9.80924     354.04022        63      s45784n9822e         0         0         0         0  
      64  hru0064                 64       0.93230      45.71541       9.80978     343.48305        64      s45784n9822e         0         0         0         0  
      65  hru0065                 65       1.26412      45.71519       9.80779     377.51606        65      s45784n9822e         0         0         0         0  
      66  hru0066                 66       1.75600      45.71782       9.80749     398.73397        66      s45784n9822e         0         0         0         0  
      67  hru0067                 67       1.82589      45.71622       9.80827     379.24619        67      s45784n9822e         0         0         0         0  
      68  hru0068                 68       0.99524      45.71641       9.84208     382.80246        68      s45784n9822e         0         0         0         0  
      69  hru0069                 69       4.65175      45.71780       9.84205     431.27857        69      s45784n9822e         0         0         0         0  
      70  hru0070                 70       0.83427      45.71776       9.84544     380.66676        70      s45784n9822e         0         0         0         0  
      71  hru0071                 71       0.93947      45.71619       9.84282     365.66195        71      s45784n9822e         0         0         0         0  
      72  hru0072                 72       0.50243      45.71747       9.83953     461.84382        72      s45784n9822e         0         0         0         0  
      73  hru0073                 73       0.95311      45.71670       9.83930     430.42728        73      s45784n9822e         0         0         0         0  
      74  hru0074                 74       1.57546      45.71539       9.84045     385.20029        74      s45784n9822e         0         0         0         0  
      75  hru0075                 75       0.98591      45.71699       9.84635     402.04654        75      s45784n9822e         0         0         0         0  
      76  hru0076                 76       0.75718      45.71498       9.84127     361.19579        76      s45784n9822e         0         0         0         0  
      77  hru0077                 77       1.01527      45.71467       9.83877     433.75372        77      s45784n9822e         0         0         0         0  
      78  hru0078                 78       1.25465      45.71660       9.84080     398.05604        78      s45784n9822e         0         0         0         0  
      79  hru0079                 79       0.36139      45.71484       9.84290     332.97695        79      s45784n9822e         0         0         0         0  
      80  hru0080                 80       0.99885      45.71612       9.84662     382.57721        80      s45784n9822e         0         0         0         0  
      81  hru0081                 81       2.78791      45.71396       9.84179     345.80053        81      s45784n9822e         0         0         0         0  
      82  hru0082                 82       0.84817      45.71658       9.84559     365.01477        82      s45784n9822e         0         0         0         0  
      83  hru0083                 83       0.50233      45.71413       9.84106     376.37179        83      s45784n9822e         0         0         0         0  
      84  hru0084                 84       1.01296      45.71592       9.83974     406.35107        84      s45784n9822e         0         0         0         0  
      85  hru0085                 85       1.37329      45.71634       9.84379     350.98644        85      s45784n9822e         0         0         0         0  
      86  hru0086                 86       1.27844      45.71573       9.83750     421.82536        86      s45784n9822e         0         0         0         0  
      87  hru0087                 87       0.72072      45.71565       9.83868     436.46019        87      s45784n9822e         0         0         0         0  
      88  hru0088                 88       0.84606      45.71423       9.83950     422.52025        88      s45784n9822e         0         0         0         0  
      89  hru0089                 89       0.26948      45.71666       9.84435     345.62802        89      s45784n9822e         0         0         0         0  
      90  hru0090                 90       3.60466      45.71460       9.84477     336.86112        90      s45784n9822e         0         0         0         0  
      91  hru0091                 91       0.25245      45.71519       9.84234     342.68639        91      s45784n9822e         0         0         0         0  
      92  hru0092                 92       0.28031      45.71538       9.84292     346.37996        92      s45784n9822e         0         0         0         0  
      93  hru0093                 93       1.00318      45.71382       9.84305     321.34737        93      s45784n9822e         0         0         0         0  
      94  hru0094                 94       0.46848      45.71544       9.84656     366.06328        94      s45784n9822e         0         0         0         0  
      95  hru0095                 95       0.86502      45.71597       9.84911     425.17000        95      s45784n9822e         0         0         0         0  
      96  hru0096                 96       1.54349      45.71494       9.84930     408.49651        96      s45784n9822e         0         0         0         0  
      97  hru0097                 97       0.52999      45.71656       9.85297     563.81705        97      s45784n9822e         0         0         0         0  
      98  hru0098                 98       0.78127      45.71585       9.84761     391.85384        98      s45784n9822e         0         0         0         0  
      99  hru0099                 99       0.80530      45.71549       9.84856     396.86494        99      s45784n9822e         0         0         0         0  
     100  hru0100                100       1.79432      45.71719       9.84767     445.51873       100      s45784n9822e         0         0         0         0  
     101  hru0101                101       0.86683      45.71759       9.84994     519.21113       101      s45784n9822e         0         0         0         0  
     102  hru0102                102       0.56410      45.71631       9.84953     443.75766       102      s45784n9822e         0         0         0         0  
     103  hru0103                103       1.23697      45.71493       9.84686     368.84555       103      s45784n9822e         0         0         0         0  
     104  hru0104                104       1.39390      45.71824       9.81412     418.65874       104      s45784n9822e         0         0         0         0  
     105  hru0105                105       1.67929      45.73046       9.81459     912.18917       105      s45784n9822e         0         0         0         0  
     106  hru0106                106      31.11383      45.72453       9.81556     608.68883       106      s45784n9822e         0         0         0         0  
     107  hru0107                107      10.50660      45.71829       9.81858     444.91166       107      s45784n9822e         0         0         0         0  
     108  hru0108                108       2.48421      45.71757       9.81180     414.74755       108      s45784n9822e         0         0         0         0  
     109  hru0109                109       5.73541      45.71974       9.81358     480.35576       109      s45784n9822e         0         0         0         0  
     110  hru0110                110       0.51375      45.71596       9.81749     420.32375       110      s45784n9822e         0         0         0         0  
     111  hru0111                111       1.30190      45.73422       9.81895    1101.65187       111      s45784n9822e         0         0         0         0  
     112  hru0112                112       0.60151      45.71450       9.81761     393.13211       112      s45784n9822e         0         0         0         0  
     113  hru0113                113       0.74687      45.71558       9.81077     353.22815       113      s45784n9822e         0         0         0         0  
     114  hru0114                114       0.72220      45.71421       9.81638     366.72976       114      s45784n9822e         0         0         0         0  
     115  hru0115                115       0.91140      45.71883       9.81533     412.60153       115      s45784n9822e         0         0         0         0  
     116  hru0116                116       1.02277      45.71726       9.81300     406.31828       116      s45784n9822e         0         0         0         0  
     117  hru0117                117       0.54869      45.72096       9.81377     525.46827       117      s45784n9822e         0         0         0         0  
     118  hru0118                118       0.50845      45.72801       9.81718     727.38833       118      s45784n9822e         0         0         0         0  
     119  hru0119                119       1.69460      45.71558       9.81695     396.37684       119      s45784n9822e         0         0         0         0  
     120  hru0120                120       3.64608      45.71533       9.81541     368.69195       120      s45784n9822e         0         0         0         0  
     121  hru0121                121       0.66194      45.72180       9.81407     518.56720       121      s45784n9822e         0         0         0         0  
     122  hru0122                122       1.40997      45.71382       9.81364     344.81358       122      s45784n9822e         0         0         0         0  
     123  hru0123                123       0.95935      45.71791       9.81501     394.90000       123      s45784n9822e         0         0         0         0  
     124  hru0124                124       0.80268      45.71472       9.81241     353.39215       124      s45784n9822e         0         0         0         0  
     125  hru0125                125       0.78515      45.72104       9.81295     527.95570       125      s45784n9822e         0         0         0         0  
     126  hru0126                126       0.56460      45.71648       9.81179     387.50614       126      s45784n9822e         0         0         0         0  
     127  hru0127                127      13.78492      45.72956       9.81546     856.15547       127      s45784n9822e         0         0         0         0  
     128  hru0128                128       0.97948      45.71726       9.81021     373.12875       128      s45784n9822e         0         0         0         0  
     129  hru0129                129       0.81441      45.71608       9.81110     366.39182       129      s45784n9822e         0         0         0         0  
     130  hru0130                130       1.87841      45.71663       9.81358     378.29682       130      s45784n9822e         0         0         0         0  
     131  hru0131                131       0.97169      45.71882       9.81626     400.13833       131      s45784n9822e         0         0         0         0  
     132  hru0132                132       4.92046      45.71608       9.81462     363.43822       132      s45784n9822e         0         0         0         0  
     133  hru0133                133       1.13139      45.71873       9.83044     407.45191       133      s45784n9822e         0         0         0         0  
     134  hru0134                134       0.90580      45.71730       9.83685     400.30008       134      s45784n9822e         0         0         0         0  
     135  hru0135                135       0.67088      45.72000       9.83864     538.17592       135      s45784n9822e         0         0         0         0  
     136  hru0136                136       2.02025      45.71945       9.83970     542.36600       136      s45784n9822e         0         0         0         0  
     137  hru0137                137       0.69042      45.71864       9.84015     523.44556       137      s45784n9822e         0         0         0         0  
     138  hru0138                138       0.71809      45.71809       9.82113     372.99682       138      s45784n9822e         0         0         0         0  
     139  hru0139                139       0.61529      45.71859       9.83652     429.85488       139      s45784n9822e         0         0         0         0  
     140  hru0140                140       1.19011      45.71930       9.82573     502.92638       140      s45784n9822e         0         0         0         0  
     141  hru0141                141       0.75918      45.72177       9.82098     437.54020       141      s45784n9822e         0         0         0         0  
     142  hru0142                142       1.12020      45.71599       9.83318     355.53287       142      s45784n9822e         0         0         0         0  
     143  hru0143                143       2.01870      45.71712       9.82933     374.14176       143      s45784n9822e         0         0         0         0  
     144  hru0144                144       0.05358      45.71800       9.83012     374.28799       144      s45784n9822e         0         0         0         0  
     145  hru0145                145       0.00669      45.71574       9.83011     350.58460       145      s45784n9822e         0         0         0         0  
     146  hru0146                146       0.66090      45.71688       9.82035     385.88014       146      s45784n9822e         0         0         0         0  
     147  hru0147                147       0.69065      45.72122       9.83828     582.37976       147      s45784n9822e         0         0         0         0  
     148  hru0148                148       4.51287      45.71994       9.82447     488.35509       148      s45784n9822e         0         0         0         0  
     149  hru0149                149       0.52402      45.71676       9.83466     375.42174       149      s45784n9822e         0         0         0         0  
     150  hru0150                150       0.89180      45.71644       9.83602     379.79899       150      s45784n9822e         0         0         0         0  
     151  hru0151                151       0.67337      45.71707       9.83161     369.54955       151      s45784n9822e         0         0         0         0  
     152  hru0152                152       0.84183      45.71963       9.83738     500.44258       152      s45784n9822e         0         0         0         0  
     153  hru0153                153       1.78274      45.71846       9.83264     401.05652       153      s45784n9822e         0         0         0         0  
     154  hru0154                154       1.13802      45.71718       9.83766     430.29471       154      s45784n9822e         0         0         0         0  
     155  hru0155                155       0.68741      45.71631       9.83462     369.81163       155      s45784n9822e         0         0         0         0  
     156  hru0156                156       2.62787      45.71785       9.82892     398.39342       156      s45784n9822e         0         0         0         0  
     157  hru0157                157       0.92848      45.71734       9.83479     381.27553       157      s45784n9822e         0         0         0         0  
     158  hru0158                158       0.89009      45.71832       9.82717     451.55311       158      s45784n9822e         0         0         0         0  
     159  hru0159                159       0.90930      45.71674       9.83689     401.25015       159      s45784n9822e         0         0         0         0  
     160  hru0160                160       1.29779      45.71725       9.83376     379.12886       160      s45784n9822e         0         0         0         0  
     161  hru0161                161       0.68528      45.71760       9.83084     370.44136       161      s45784n9822e         0         0         0         0  
     162  hru0162                162       0.56113      45.72006       9.83999     575.36138       162      s45784n9822e         0         0         0         0  
     163  hru0163                163       1.93426      45.71807       9.83549     398.34199       163      s45784n9822e         0         0         0         0  
     164  hru0164                164       0.51998      45.71821       9.82192     388.85312       164      s45784n9822e         0         0         0         0  
     165  hru0165                165       1.90350      45.71783       9.83879     460.62835       165      s45784n9822e         0         0         0         0  
     166  hru0166                166       0.71865      45.71737       9.83238     374.56604       166      s45784n9822e         0         0         0         0  
     167  hru0167                167       1.49076      45.71474       9.83530     384.38129       167      s45784n9822e         0         0         0         0  
     168  hru0168                168       5.24755      45.71511       9.83460     366.12877       168      s45784n9822e         0         0         0         0  
     169  hru0169                169       1.38562      45.71682       9.82280     367.51835       169      s45784n9822e         0         0         0         0  
     170  hru0170                170       2.52452      45.71545       9.82600     408.02800       170      s45784n9822e         0         0         0         0  
     171  hru0171                171       1.94960      45.71532       9.83193     345.19337       171      s45784n9822e         0         0         0         0  
     172  hru0172                172       5.23053      45.71365       9.84674     388.64216       172      s45784n9822e         0         0         0         0  
     173  hru0173                173       6.67586      45.71105       9.84603     388.43618       173      s45784n9822e         0         0         0         0  
     174  hru0174                174       1.00156      45.70713       9.84507     315.59479       174      s45784n9822e         0         0         0         0  
     175  hru0175                175       1.03987      45.70672       9.84265     298.17696       175      s45784n9822e         0         0         0         0  
     176  hru0176                176       2.74409      45.71250       9.84840     454.62968       176      s45784n9822e         0         0         0         0  
     177  hru0177                177       1.45983      45.71052       9.84815     457.37545       177      s45784n9822e         0         0         0         0  
     178  hru0178                178       1.01729      45.70533       9.84370     330.18871       178      s45784n9822e         0         0         0         0  
     179  hru0179                179       0.86621      45.71204       9.84695     430.46256       179      s45784n9822e         0         0         0         0  
     180  hru0180                180       0.97883      45.70753       9.84272     295.92631       180      s45784n9822e         0         0         0         0  
     181  hru0181                181       0.95142      45.71094       9.84755     450.97091       181      s45784n9822e         0         0         0         0  
     182  hru0182                182       1.49136      45.70527       9.84504     349.23623       182      s45784n9822e         0         0         0         0  