initial.cha: written by SWAT+ editor v2.1.0 on 2024-02-20 09:22 for SWAT+ rev.60.5.4
name                       org_min              pest              path              hmet              salt  description       
initcha1                   no_init              null              null              null              null  null              
