landuse.lum: written by SWAT+ editor v2.1.0 on 2024-02-20 09:22 for SWAT+ rev.60.5.4, edited manually on 2024-03-05 17:39:40.415122 and edited with SWATfarmR 2.0.5 on 2024-09-24 22:15:56.455699
name                         cal_group          plnt_com               mgt               cn2         cons_prac             urban            urb_ro           ov_mann              tile               sep               vfs              grww               bmp
field_3444_lum_3430_1              null field_3444_comm_3430_1 field_3444_mgt_3430_1        rc_strow_g     up_down_slope              null              null      convtill_res              null              null              null              null              null
field_3445_lum_3431_1              null field_3445_comm_3431_1 field_3445_mgt_3431_1        rc_strow_g     up_down_slope              null              null      convtill_res              null              null              null              null              null
field_3446_lum_3432_1              null field_3446_comm_3432_1 field_3446_mgt_3432_1        rc_strow_g     up_down_slope              null              null      convtill_res              null              null              null              null              null
field_3447_lum_3433_1              null field_3447_comm_3433_1 field_3447_mgt_3433_1        rc_strow_g     up_down_slope              null              null      convtill_res              null              null              null              null              null
field_3448_lum_3434_1              null field_3448_comm_3434_1 field_3448_mgt_3434_1        rc_strow_g     up_down_slope              null              null      convtill_res              null              null              null              null              null
field_3449_lum_3435_1              null field_3449_comm_3435_1 field_3449_mgt_3435_1        rc_strow_g     up_down_slope              null              null      convtill_res              null              null              null              null              null
field_3450_lum_3436_1              null field_3450_comm_3436_1 field_3450_mgt_3436_1        rc_strow_g     up_down_slope              null              null      convtill_res              null              null              null              null              null
field_3451_lum_3437_1              null field_3451_comm_3437_1 field_3451_mgt_3437_1        rc_strow_g     up_down_slope              null              null      convtill_res              null              null              null              null              null
field_3452_lum_3438_1              null field_3452_comm_3438_1 field_3452_mgt_3438_1        rc_strow_g     up_down_slope              null              null      convtill_res              null              null              null              null              null
field_3453_lum_3439_1              null field_3453_comm_3439_1 field_3453_mgt_3439_1        rc_strow_g     up_down_slope              null              null      convtill_res              null              null              null              null              null
field_3454_lum_3440_1              null field_3454_comm_3440_1 field_3454_mgt_3440_1        rc_strow_g     up_down_slope              null              null      convtill_res              null              null              null              null              null
field_3455_lum_3441_1              null field_3455_comm_3441_1 field_3455_mgt_3441_1        rc_strow_g     up_down_slope              null              null      convtill_res              null              null              null              null              null
field_3456_lum_3442_1              null field_3456_comm_3442_1 field_3456_mgt_3442_1        rc_strow_g     up_down_slope              null              null      convtill_res              null              null              null              null              null
field_3457_lum_3443_1              null field_3457_comm_3443_1 field_3457_mgt_3443_1        rc_strow_g     up_down_slope              null              null      convtill_res              null              null              null              null              null
field_3458_lum_3444_1              null field_3458_comm_3444_1 field_3458_mgt_3444_1        rc_strow_g     up_down_slope              null              null      convtill_res              null              null              null              null              null
field_3459_lum_3445_1              null field_3459_comm_3445_1 field_3459_mgt_3445_1        rc_strow_g     up_down_slope              null              null      convtill_res              null              null              null              null              null
field_3460_lum_3446_1              null field_3460_comm_3446_1 field_3460_mgt_3446_1        rc_strow_g     up_down_slope              null              null      convtill_res              null              null              null              null              null
field_3461_lum_3447_1              null field_3461_comm_3447_1 field_3461_mgt_3447_1        rc_strow_g     up_down_slope              null              null      convtill_res              null              null              null              null              null
field_3463_lum_3449_1              null field_3463_comm_3449_1 field_3463_mgt_3449_1        rc_strow_g     up_down_slope              null              null      convtill_res              null              null              null              null              null
field_3464_lum_3450_1              null field_3464_comm_3450_1 field_3464_mgt_3450_1        rc_strow_g     up_down_slope              null              null      convtill_res              null              null              null              null              null
field_3465_lum_3451_1              null field_3465_comm_3451_1 field_3465_mgt_3451_1        rc_strow_g     up_down_slope              null              null      convtill_res              null              null              null              null              null
field_3466_lum_3452_1              null field_3466_comm_3452_1 field_3466_mgt_3452_1        rc_strow_g     up_down_slope              null              null      convtill_res              null              null              null              null              null
field_3472_lum_3458_1              null field_3472_comm_3458_1 field_3472_mgt_3458_1        rc_strow_g     up_down_slope              null              null      convtill_res              null              null              null              null              null
field_3473_lum_3459_1              null field_3473_comm_3459_1 field_3473_mgt_3459_1        rc_strow_g     up_down_slope              null              null      convtill_res              null              null              null              null              null
field_3474_lum_3460_1              null field_3474_comm_3460_1 field_3474_mgt_3460_1        rc_strow_g     up_down_slope              null              null      convtill_res              null              null              null              null              null
field_3477_lum_3461_1              null field_3477_comm_3461_1 field_3477_mgt_3461_1        rc_strow_g     up_down_slope              null              null      convtill_res              null              null              null              null              null
field_3478_lum_3462_1              null field_3478_comm_3462_1 field_3478_mgt_3462_1        rc_strow_g     up_down_slope              null              null      convtill_res              null              null              null              null              null
field_3479_lum_3463_1              null field_3479_comm_3463_1 field_3479_mgt_3463_1        rc_strow_g     up_down_slope              null              null      convtill_res              null              null              null              null              null
field_3480_lum_3464_1              null field_3480_comm_3464_1 field_3480_mgt_3464_1        rc_strow_g     up_down_slope              null              null      convtill_res              null              null              null              null              null
field_3482_lum_3466_1              null field_3482_comm_3466_1 field_3482_mgt_3466_1        rc_strow_g     up_down_slope              null              null      convtill_res              null              null              null              null              null
field_3483_lum_3467_1              null field_3483_comm_3467_1 field_3483_mgt_3467_1        rc_strow_g     up_down_slope              null              null      convtill_res              null              null              null              null              null
field_3484_lum_3468_1              null field_3484_comm_3468_1 field_3484_mgt_3468_1        rc_strow_g     up_down_slope              null              null      convtill_res              null              null              null              null              null
field_3485_lum_3469_1              null field_3485_comm_3469_1 field_3485_mgt_3469_1        rc_strow_g     up_down_slope              null              null      convtill_res              null              null              null              null              null
field_3486_lum_3470_1              null field_3486_comm_3470_1 field_3486_mgt_3470_1        rc_strow_g     up_down_slope              null              null      convtill_res              null              null              null              null              null
field_3487_lum_3471_1              null field_3487_comm_3471_1 field_3487_mgt_3471_1        rc_strow_g     up_down_slope              null              null      convtill_res              null              null              null              null              null
field_3490_lum_3474_1              null field_3490_comm_3474_1 field_3490_mgt_3474_1        rc_strow_g     up_down_slope              null              null      convtill_res              null              null              null              null              null
field_3492_lum_3476_1              null field_3492_comm_3476_1 field_3492_mgt_3476_1        rc_strow_g     up_down_slope              null              null      convtill_res              null              null              null              null              null
field_3496_lum_3480_1              null field_3496_comm_3480_1 field_3496_mgt_3480_1        rc_strow_g     up_down_slope              null              null      convtill_res              null              null              null              null              null
field_3497_lum_3481_1              null field_3497_comm_3481_1 field_3497_mgt_3481_1        rc_strow_g     up_down_slope              null              null      convtill_res              null              null              null              null              null
field_3498_lum_3482_1              null field_3498_comm_3482_1 field_3498_mgt_3482_1        rc_strow_g     up_down_slope              null              null      convtill_res              null              null              null              null              null
field_3503_lum_3487_1              null field_3503_comm_3487_1 field_3503_mgt_3487_1        rc_strow_g     up_down_slope              null              null      convtill_res              null              null              null              null              null
field_3504_lum_3488_1              null field_3504_comm_3488_1 field_3504_mgt_3488_1        rc_strow_g     up_down_slope              null              null      convtill_res              null              null              null              null              null
field_3506_lum_3490_1              null field_3506_comm_3490_1 field_3506_mgt_3490_1        rc_strow_g     up_down_slope              null              null      convtill_res              null              null              null              null              null
field_3510_lum_3494_1              null field_3510_comm_3494_1 field_3510_mgt_3494_1        rc_strow_g     up_down_slope              null              null      convtill_res              null              null              null              null              null
field_3511_lum_3495_1              null field_3511_comm_3495_1 field_3511_mgt_3495_1        rc_strow_g     up_down_slope              null              null      convtill_res              null              null              null              null              null
field_3512_lum_3496_1              null field_3512_comm_3496_1 field_3512_mgt_3496_1        rc_strow_g     up_down_slope              null              null      convtill_res              null              null              null              null              null
field_3513_lum_3497_1              null field_3513_comm_3497_1 field_3513_mgt_3497_1        rc_strow_g     up_down_slope              null              null      convtill_res              null              null              null              null              null
field_3514_lum_3498_1              null field_3514_comm_3498_1 field_3514_mgt_3498_1        rc_strow_g     up_down_slope              null              null      convtill_res              null              null              null              null              null
field_3515_lum_3499_1              null field_3515_comm_3499_1 field_3515_mgt_3499_1        rc_strow_g     up_down_slope              null              null      convtill_res              null              null              null              null              null
field_3516_lum_3500_1              null field_3516_comm_3500_1 field_3516_mgt_3500_1        rc_strow_g     up_down_slope              null              null      convtill_res              null              null              null              null              null
field_3517_lum_3501_1              null field_3517_comm_3501_1 field_3517_mgt_3501_1        rc_strow_g     up_down_slope              null              null      convtill_res              null              null              null              null              null
field_3518_lum_3502_1              null field_3518_comm_3502_1 field_3518_mgt_3502_1        rc_strow_g     up_down_slope              null              null      convtill_res              null              null              null              null              null
field_3521_lum_3505_1              null field_3521_comm_3505_1 field_3521_mgt_3505_1        rc_strow_g     up_down_slope              null              null      convtill_res              null              null              null              null              null
field_3524_lum_3508_1              null field_3524_comm_3508_1 field_3524_mgt_3508_1        rc_strow_g     up_down_slope              null              null      convtill_res              null              null              null              null              null
field_3525_lum_3509_1              null field_3525_comm_3509_1 field_3525_mgt_3509_1        rc_strow_g     up_down_slope              null              null      convtill_res              null              null              null              null              null
field_3527_lum_3511_1              null field_3527_comm_3511_1 field_3527_mgt_3511_1        rc_strow_g     up_down_slope              null              null      convtill_res              null              null              null              null              null
field_3529_lum_3513_1              null field_3529_comm_3513_1 field_3529_mgt_3513_1        rc_strow_g     up_down_slope              null              null      convtill_res              null              null              null              null              null
field_3532_lum_3516_1              null field_3532_comm_3516_1 field_3532_mgt_3516_1        rc_strow_g     up_down_slope              null              null      convtill_res              null              null              null              null              null
field_3534_lum_3518_1              null field_3534_comm_3518_1 field_3534_mgt_3518_1        rc_strow_g     up_down_slope              null              null      convtill_res              null              null              null              null              null
field_3539_lum_3523_1              null field_3539_comm_3523_1 field_3539_mgt_3523_1        rc_strow_g     up_down_slope              null              null      convtill_res              null              null              null              null              null
field_3541_lum_3525_1              null field_3541_comm_3525_1 field_3541_mgt_3525_1        rc_strow_g     up_down_slope              null              null      convtill_res              null              null              null              null              null
field_3542_lum_3526_1              null field_3542_comm_3526_1 field_3542_mgt_3526_1        rc_strow_g     up_down_slope              null              null      convtill_res              null              null              null              null              null
field_3543_lum_3527_1              null field_3543_comm_3527_1 field_3543_mgt_3527_1        rc_strow_g     up_down_slope              null              null      convtill_res              null              null              null              null              null
field_3544_lum_3528_1              null field_3544_comm_3528_1 field_3544_mgt_3528_1        rc_strow_g     up_down_slope              null              null      convtill_res              null              null              null              null              null
field_3545_lum_3529_1              null field_3545_comm_3529_1 field_3545_mgt_3529_1        rc_strow_g     up_down_slope              null              null      convtill_res              null              null              null              null              null
field_3546_lum_3530_1              null field_3546_comm_3530_1 field_3546_mgt_3530_1        rc_strow_g     up_down_slope              null              null      convtill_res              null              null              null              null              null
field_3547_lum_3531_1              null field_3547_comm_3531_1 field_3547_mgt_3531_1        rc_strow_g     up_down_slope              null              null      convtill_res              null              null              null              null              null
field_3548_lum_3532_1              null field_3548_comm_3532_1 field_3548_mgt_3532_1        rc_strow_g     up_down_slope              null              null      convtill_res              null              null              null              null              null
field_3549_lum_3533_1              null field_3549_comm_3533_1 field_3549_mgt_3533_1        rc_strow_g     up_down_slope              null              null      convtill_res              null              null              null              null              null
field_3551_lum_3535_1              null field_3551_comm_3535_1 field_3551_mgt_3535_1        rc_strow_g     up_down_slope              null              null      convtill_res              null              null              null              null              null
field_3552_lum_3536_1              null field_3552_comm_3536_1 field_3552_mgt_3536_1        rc_strow_g     up_down_slope              null              null      convtill_res              null              null              null              null              null
field_3554_lum_3538_1              null field_3554_comm_3538_1 field_3554_mgt_3538_1        rc_strow_g     up_down_slope              null              null      convtill_res              null              null              null              null              null
field_3555_lum_3539_1              null field_3555_comm_3539_1 field_3555_mgt_3539_1        rc_strow_g     up_down_slope              null              null      convtill_res              null              null              null              null              null
field_3556_lum_3540_1              null field_3556_comm_3540_1 field_3556_mgt_3540_1        rc_strow_g     up_down_slope              null              null      convtill_res              null              null              null              null              null
field_3557_lum_3541_1              null field_3557_comm_3541_1 field_3557_mgt_3541_1        rc_strow_g     up_down_slope              null              null      convtill_res              null              null              null              null              null
field_3558_lum_3542_1              null field_3558_comm_3542_1 field_3558_mgt_3542_1        rc_strow_g     up_down_slope              null              null      convtill_res              null              null              null              null              null
field_3559_lum_3543_1              null field_3559_comm_3543_1 field_3559_mgt_3543_1        rc_strow_g     up_down_slope              null              null      convtill_res              null              null              null              null              null
field_3560_lum_3544_1              null field_3560_comm_3544_1 field_3560_mgt_3544_1        rc_strow_g     up_down_slope              null              null      convtill_res              null              null              null              null              null
field_3567_lum_3549_1              null field_3567_comm_3549_1 field_3567_mgt_3549_1        rc_strow_g     up_down_slope              null              null      convtill_res              null              null              null              null              null
field_3568_lum_3550_1              null field_3568_comm_3550_1 field_3568_mgt_3550_1        rc_strow_g     up_down_slope              null              null      convtill_res              null              null              null              null              null
field_3569_lum_3551_1              null field_3569_comm_3551_1 field_3569_mgt_3551_1        rc_strow_g     up_down_slope              null              null      convtill_res              null              null              null              null              null
field_3571_lum_3553_1              null field_3571_comm_3553_1 field_3571_mgt_3553_1        rc_strow_g     up_down_slope              null              null      convtill_res              null              null              null              null              null
field_3573_lum_3555_1              null field_3573_comm_3555_1 field_3573_mgt_3555_1        rc_strow_g     up_down_slope              null              null      convtill_res              null              null              null              null              null
field_3578_lum_3560_1              null field_3578_comm_3560_1 field_3578_mgt_3560_1        rc_strow_g     up_down_slope              null              null      convtill_res              null              null              null              null              null
field_3580_lum_3562_1              null field_3580_comm_3562_1 field_3580_mgt_3562_1        rc_strow_g     up_down_slope              null              null      convtill_res              null              null              null              null              null
field_3583_lum_3565_1              null field_3583_comm_3565_1 field_3583_mgt_3565_1        rc_strow_g     up_down_slope              null              null      convtill_res              null              null              null              null              null
field_3584_lum_3566_1              null field_3584_comm_3566_1 field_3584_mgt_3566_1        rc_strow_g     up_down_slope              null              null      convtill_res              null              null              null              null              null
field_3585_lum_3567_1              null field_3585_comm_3567_1 field_3585_mgt_3567_1        rc_strow_g     up_down_slope              null              null      convtill_res              null              null              null              null              null
field_3588_lum_3570_1              null field_3588_comm_3570_1 field_3588_mgt_3570_1        rc_strow_g     up_down_slope              null              null      convtill_res              null              null              null              null              null
field_3589_lum_3571_1              null field_3589_comm_3571_1 field_3589_mgt_3571_1        rc_strow_g     up_down_slope              null              null      convtill_res              null              null              null              null              null
field_3590_lum_3572_1              null field_3590_comm_3572_1 field_3590_mgt_3572_1        rc_strow_g     up_down_slope              null              null      convtill_res              null              null              null              null              null
field_3591_lum_3573_1              null field_3591_comm_3573_1 field_3591_mgt_3573_1        rc_strow_g     up_down_slope              null              null      convtill_res              null              null              null              null              null
field_3592_lum_3574_1              null field_3592_comm_3574_1 field_3592_mgt_3574_1        rc_strow_g     up_down_slope              null              null      convtill_res              null              null              null              null              null
field_3593_lum_3575_1              null field_3593_comm_3575_1 field_3593_mgt_3575_1        rc_strow_g     up_down_slope              null              null      convtill_res              null              null              null              null              null
field_3594_lum_3576_1              null field_3594_comm_3576_1 field_3594_mgt_3576_1        rc_strow_g     up_down_slope              null              null      convtill_res              null              null              null              null              null
field_3595_lum_3577_1              null field_3595_comm_3577_1 field_3595_mgt_3577_1        rc_strow_g     up_down_slope              null              null      convtill_res              null              null              null              null              null
field_3596_lum_3578_1              null field_3596_comm_3578_1 field_3596_mgt_3578_1        rc_strow_g     up_down_slope              null              null      convtill_res              null              null              null              null              null
field_3597_lum_3579_1              null field_3597_comm_3579_1 field_3597_mgt_3579_1        rc_strow_g     up_down_slope              null              null      convtill_res              null              null              null              null              null
field_3598_lum_3580_1              null field_3598_comm_3580_1 field_3598_mgt_3580_1        rc_strow_g     up_down_slope              null              null      convtill_res              null              null              null              null              null
field_3603_lum_3585_1              null field_3603_comm_3585_1 field_3603_mgt_3585_1        rc_strow_g     up_down_slope              null              null      convtill_res              null              null              null              null              null
field_3604_lum_3586_1              null field_3604_comm_3586_1 field_3604_mgt_3586_1        rc_strow_g     up_down_slope              null              null      convtill_res              null              null              null              null              null
field_3605_lum_3587_1              null field_3605_comm_3587_1 field_3605_mgt_3587_1        rc_strow_g     up_down_slope              null              null      convtill_res              null              null              null              null              null
field_3608_lum_3590_1              null field_3608_comm_3590_1 field_3608_mgt_3590_1        rc_strow_g     up_down_slope              null              null      convtill_res              null              null              null              null              null
field_3609_lum_3591_1              null field_3609_comm_3591_1 field_3609_mgt_3591_1        rc_strow_g     up_down_slope              null              null      convtill_res              null              null              null              null              null
field_3610_lum_3592_1              null field_3610_comm_3592_1 field_3610_mgt_3592_1        rc_strow_g     up_down_slope              null              null      convtill_res              null              null              null              null              null
field_3611_lum_3593_1              null field_3611_comm_3593_1 field_3611_mgt_3593_1        rc_strow_g     up_down_slope              null              null      convtill_res              null              null              null              null              null
field_3612_lum_3594_1              null field_3612_comm_3594_1 field_3612_mgt_3594_1        rc_strow_g     up_down_slope              null              null      convtill_res              null              null              null              null              null
field_3613_lum_3595_1              null field_3613_comm_3595_1 field_3613_mgt_3595_1        rc_strow_g     up_down_slope              null              null      convtill_res              null              null              null              null              null
field_3615_lum_3597_1              null field_3615_comm_3597_1 field_3615_mgt_3597_1        rc_strow_g     up_down_slope              null              null      convtill_res              null              null              null              null              null
field_3616_lum_3598_1              null field_3616_comm_3598_1 field_3616_mgt_3598_1        rc_strow_g     up_down_slope              null              null      convtill_res              null              null              null              null              null
field_3617_lum_3599_1              null field_3617_comm_3599_1 field_3617_mgt_3599_1        rc_strow_g     up_down_slope              null              null      convtill_res              null              null              null              null              null