ls_unit.def: written by SWAT+ editor v2.1.0 on 2024-02-20 09:22 for SWAT+ rev.60.5.4
5546
      id              name          area  elem_tot  elements  
       1           rtu0001       0.76279         1         1  
       2           rtu0002       0.74251         1         2  
       3           rtu0003       1.06522         1         3  
       4           rtu0004       0.64725         1         4  
       5           rtu0005       0.13820         1         5  
       6           rtu0006       0.68646         1         6  
       7           rtu0007       0.55122         1         7  
       8           rtu0008       2.23802         1         8  
       9           rtu0009       1.61555         1         9  
      10           rtu0010       0.90030         1        10  
      11           rtu0011       0.93716         1        11  
      12           rtu0012       1.19073         1        12  
      13           rtu0013       0.00953         1        13  
      14           rtu0014       0.83893         1        14  
      15           rtu0015       0.21376         1        15  
      16           rtu0016       0.67041         1        16  
      17           rtu0017       3.73880         1        17  
      18           rtu0018       2.02301         1        18  
      19           rtu0019       0.94428         1        19  
      20           rtu0020       0.42244         1        20  
      21           rtu0021       0.42651         1        21  
      22           rtu0022       1.01872         1        22  
      23           rtu0023       0.43862         1        23  
      24           rtu0024       0.45599         1        24  
      25           rtu0025       1.07384         1        25  
      26           rtu0026       0.75898         1        26  
      27           rtu0027       0.08528         1        27  
      28           rtu0028       0.05465         1        28  
      29           rtu0029       0.19928         1        29  
      30           rtu0030       0.68584         1        30  
      31           rtu0031       0.22225         1        31  
      32           rtu0032       3.86011         1        32  
      33           rtu0033       2.88474         1        33  
      34           rtu0034       1.21979         1        34  
      35           rtu0035       0.64096         1        35  
      36           rtu0036       4.19802         1        36  
      37           rtu0037       3.54761         1        37  
      38           rtu0038       3.18963         1        38  
      39           rtu0039       6.82036         1        39  
      40           rtu0040       1.22508         1        40  
      41           rtu0041       1.02887         1        41  
      42           rtu0042       2.02841         1        42  
      43           rtu0043       0.50396         1        43  
      44           rtu0044       1.38157         1        44  
      45           rtu0045       1.58781         1        45  
      46           rtu0046       1.10818         1        46  
      47           rtu0047       1.37979         1        47  
      48           rtu0048       1.06112         1        48  
      49           rtu0049       2.46372         1        49  
      50           rtu0050       0.98926         1        50  
      51           rtu0051       0.60011         1        51  
      52           rtu0052       1.11906         1        52  
      53           rtu0053       0.74324         1        53  
      54           rtu0054       2.62924         1        54  
      55           rtu0055       3.05129         1        55  
      56           rtu0056       2.88793         1        56  
      57           rtu0057       2.03874         1        57  
      58           rtu0058       0.62961         1        58  
      59           rtu0059       0.69480         1        59  
      60           rtu0060       0.94547         1        60  
      61           rtu0061       0.75916         1        61  
      62           rtu0062       0.73613         1        62  
      63           rtu0063       0.45664         1        63  
      64           rtu0064       0.93230         1        64  
      65           rtu0065       1.26412         1        65  
      66           rtu0066       1.75600         1        66  
      67           rtu0067       1.82589         1        67  
      68           rtu0068       0.99524         1        68  
      69           rtu0069       4.65175         1        69  
      70           rtu0070       0.83427         1        70  
      71           rtu0071       0.93947         1        71  
      72           rtu0072       0.50243         1        72  
      73           rtu0073       0.95311         1        73  
      74           rtu0074       1.57546         1        74  
      75           rtu0075       0.98591         1        75  
      76           rtu0076       0.75718         1        76  
      77           rtu0077       1.01527         1        77  
      78           rtu0078       1.25465         1        78  
      79           rtu0079       0.36139         1        79  
      80           rtu0080       0.99885         1        80  
      81           rtu0081       2.78791         1        81  
      82           rtu0082       0.84817         1        82  
      83           rtu0083       0.50233         1        83  
      84           rtu0084       1.01296         1        84  
      85           rtu0085       1.37329         1        85  
      86           rtu0086       1.27844         1        86  
      87           rtu0087       0.72072         1        87  
      88           rtu0088       0.84606         1        88  
      89           rtu0089       0.26948         1        89  
      90           rtu0090       3.60466         1        90  
      91           rtu0091       0.25245         1        91  
      92           rtu0092       0.28031         1        92  
      93           rtu0093       1.00318         1        93  
      94           rtu0094       0.46848         1        94  
      95           rtu0095       0.86502         1        95  
      96           rtu0096       1.54349         1        96  
      97           rtu0097       0.52999         1        97  
      98           rtu0098       0.78127         1        98  
      99           rtu0099       0.80530         1        99  
     100           rtu0100       1.79432         1       100  
     101           rtu0101       0.86683         1       101  
     102           rtu0102       0.56410         1       102  
     103           rtu0103       1.23697         1       103  
     104           rtu0104       1.39390         1       104  
     105           rtu0105       1.67929         1       105  
     106           rtu0106      31.11383         1       106  
     107           rtu0107      10.50660         1       107  
     108           rtu0108       2.48421         1       108  
     109           rtu0109       5.73541         1       109  
     110           rtu0110       0.51375         1       110  
     111           rtu0111       1.30190         1       111  
     112           rtu0112       0.60151         1       112  
     113           rtu0113       0.74687         1       113  
     114           rtu0114       0.72220         1       114  
     115           rtu0115       0.91140         1       115  
     116           rtu0116       1.02277         1       116  
     117           rtu0117       0.54869         1       117  
     118           rtu0118       0.50845         1       118  
     119           rtu0119       1.69460         1       119  
     120           rtu0120       3.64608         1       120  
     121           rtu0121       0.66194         1       121  
     122           rtu0122       1.40997         1       122  
     123           rtu0123       0.95935         1       123  
     124           rtu0124       0.80268         1       124  
     125           rtu0125       0.78515         1       125  
     126           rtu0126       0.56460         1       126  
     127           rtu0127      13.78492         1       127  
     128           rtu0128       0.97948         1       128  
     129           rtu0129       0.81441         1       129  
     130           rtu0130       1.87841         1       130  
     131           rtu0131       0.97169         1       131  
     132           rtu0132       4.92046         1       132  
     133           rtu0133       1.13139         1       133  
     134           rtu0134       0.90580         1       134  
     135           rtu0135       0.67088         1       135  
     136           rtu0136       2.02025         1       136  
     137           rtu0137       0.69042         1       137  
     138           rtu0138       0.71809         1       138  
     139           rtu0139       0.61529         1       139  
     140           rtu0140       1.19011         1       140  
     141           rtu0141       0.75918         1       141  
     142           rtu0142       1.12020         1       142  
     143           rtu0143       2.01870         1       143  
     144           rtu0144       0.05358         1       144  
     145           rtu0145       0.00669         1       145  
     146           rtu0146       0.66090         1       146  
     147           rtu0147       0.69065         1       147  
     148           rtu0148       4.51287         1       148  
     149           rtu0149       0.52402         1       149  
     150           rtu0150       0.89180         1       150  
     151           rtu0151       0.67337         1       151  
     152           rtu0152       0.84183         1       152  
     153           rtu0153       1.78274         1       153  
     154           rtu0154       1.13802         1       154  
     155           rtu0155       0.68741         1       155  
     156           rtu0156       2.62787         1       156  
     157           rtu0157       0.92848         1       157  
     158           rtu0158       0.89009         1       158  
     159           rtu0159       0.90930         1       159  
     160           rtu0160       1.29779         1       160  
     161           rtu0161       0.68528         1       161  
     162           rtu0162       0.56113         1       162  
     163           rtu0163       1.93426         1       163  
     164           rtu0164       0.51998         1       164  
     165           rtu0165       1.90350         1       165  
     166           rtu0166       0.71865         1       166  
     167           rtu0167       1.49076         1       167  
     168           rtu0168       5.24755         1       168  
     169           rtu0169       1.38562         1       169  
     170           rtu0170       2.52452         1       170  
     171           rtu0171       1.94960         1       171  
     172           rtu0172       5.23053         1       172  
     173           rtu0173       6.67586         1       173  
     174           rtu0174       1.00156         1       174  
     175           rtu0175       1.03987         1       175  
     176           rtu0176       2.74409         1       176  
     177           rtu0177       1.45983         1       177  
     178           rtu0178       1.01729         1       178  
     179           rtu0179       0.86621         1       179  
     180           rtu0180       0.97883         1       180  
     181           rtu0181       0.95142         1       181  
     182           rtu0182       1.49136         1       182  
     183           rtu0183       2.41944         1       183  
     184           rtu0184       0.65931         1       184  
     185           rtu0185       0.50103         1       185  
     186           rtu0186       0.02997         1       186  
     187           rtu0187       0.01630         1       187  
     188           rtu0188       0.03875         1       188  
     189           rtu0189       1.19085         1       189  
     190           rtu0190       0.70790         1       190  
     191           rtu0191       0.95988         1       191  
     192           rtu0192       1.89160         1       192  
     193           rtu0193       1.28224         1       193  
     194           rtu0194       3.99082         1       194  
     195           rtu0195       0.81268         1       195  
     196           rtu0196       0.53429         1       196  
     197           rtu0197       0.35124         1       197  
     198           rtu0198       0.04236         1       198  
     199           rtu0199       0.71496         1       199  
     200           rtu0200       2.41847         1       200  
     201           rtu0201       0.85289         1       201  
     202           rtu0202       8.34124         1       202  
     203           rtu0203       3.76214         1       203  
     204           rtu0204       0.62405         1       204  
     205           rtu0205       1.22502         1       205  
     206           rtu0206       0.84690         1       206  
     207           rtu0207      12.75210         1       207  
     208           rtu0208       0.45480         1       208  
     209           rtu0209       0.61657         1       209  
     210           rtu0210       1.43383         1       210  
     211           rtu0211       0.80160         1       211  
     212           rtu0212       0.87978         1       212  
     213           rtu0213       2.02452         1       213  
     214           rtu0214       1.43899         1       214  
     215           rtu0215       9.97465         1       215  
     216           rtu0216       0.65445         1       216  
     217           rtu0217       1.11453         1       217  
     218           rtu0218       0.81073         1       218  
     219           rtu0219       0.37463         1       219  
     220           rtu0220       1.08983         1       220  
     221           rtu0221       1.06048         1       221  
     222           rtu0222       0.58410         1       222  
     223           rtu0223       1.07898         1       223  
     224           rtu0224       0.29639         1       224  
     225           rtu0225       0.80466         1       225  
     226           rtu0226       1.87188         1       226  
     227           rtu0227       0.53002         1       227  
     228           rtu0228       0.50680         1       228  
     229           rtu0229       0.52744         1       229  
     230           rtu0230       1.94057         1       230  
     231           rtu0231       0.66963         1       231  
     232           rtu0232       0.39345         1       232  
     233           rtu0233       0.31453         1       233  
     234           rtu0234       1.05648         1       234  
     235           rtu0235       0.56466         1       235  
     236           rtu0236       1.25627         1       236  
     237           rtu0237       2.27830         1       237  
     238           rtu0238       0.02202         1       238  
     239           rtu0239       0.73388         1       239  
     240           rtu0240       0.69452         1       240  
     241           rtu0241       0.65545         1       241  
     242           rtu0242       0.84848         1       242  
     243           rtu0243       0.51793         1       243  
     244           rtu0244      19.32245         1       244  
     245           rtu0245       6.34419         1       245  
     246           rtu0246       5.31399         1       246  
     247           rtu0247       0.64302         1       247  
     248           rtu0248       0.56578         1       248  
     249           rtu0249       0.70444         1       249  
     250           rtu0250       0.63410         1       250  
     251           rtu0251       0.93908         1       251  
     252           rtu0252       0.69597         1       252  
     253           rtu0253       0.81558         1       253  
     254           rtu0254       1.20233         1       254  
     255           rtu0255       4.89830         1       255  
     256           rtu0256       0.86688         1       256  
     257           rtu0257       1.06630         1       257  
     258           rtu0258       0.17565         1       258  
     259           rtu0259       0.44540         1       259  
     260           rtu0260       5.66310         1       260  
     261           rtu0261       0.95237         1       261  
     262           rtu0262       4.76822         1       262  
     263           rtu0263       0.94342         1       263  
     264           rtu0264       1.15885         1       264  
     265           rtu0265       1.15853         1       265  
     266           rtu0266       0.56912         1       266  
     267           rtu0267       0.55222         1       267  
     268           rtu0268       1.45376         1       268  
     269           rtu0269       0.60448         1       269  
     270           rtu0270       0.77856         1       270  
     271           rtu0271       0.57637         1       271  
     272           rtu0272       1.48495         1       272  
     273           rtu0273       0.43617         1       273  
     274           rtu0274       0.66513         1       274  
     275           rtu0275       0.52200         1       275  
     276           rtu0276       1.23380         1       276  
     277           rtu0277       0.93976         1       277  
     278           rtu0278       0.84353         1       278  
     279           rtu0279       0.98047         1       279  
     280           rtu0280       0.50926         1       280  
     281           rtu0281       0.47345         1       281  
     282           rtu0282       0.87436         1       282  
     283           rtu0283       0.45267         1       283  
     284           rtu0284       3.72034         1       284  
     285           rtu0285       1.21970         1       285  
     286           rtu0286       0.71306         1       286  
     287           rtu0287       3.22608         1       287  
     288           rtu0288       5.46774         1       288  
     289           rtu0289       1.17314         1       289  
     290           rtu0290       1.00265         1       290  
     291           rtu0291       2.32315         1       291  
     292           rtu0292       1.09242         1       292  
     293           rtu0293       0.87449         1       293  
     294           rtu0294       0.02592         1       294  
     295           rtu0295       1.72041         1       295  
     296           rtu0296       2.18928         1       296  
     297           rtu0297       1.58663         1       297  
     298           rtu0298       0.21926         1       298  
     299           rtu0299       0.97872         1       299  
     300           rtu0300       2.06395         1       300  
     301           rtu0301       1.26286         1       301  
     302           rtu0302       0.61642         1       302  
     303           rtu0303       0.82072         1       303  
     304           rtu0304       1.38648         1       304  
     305           rtu0305       2.54347         1       305  
     306           rtu0306       0.60300         1       306  
     307           rtu0307       0.39487         1       307  
     308           rtu0308       9.94404         1       308  
     309           rtu0309       1.02996         1       309  
     310           rtu0310       5.39613         1       310  
     311           rtu0311       1.46887         1       311  
     312           rtu0312       1.14021         1       312  
     313           rtu0313      14.42897         1       313  
     314           rtu0314      12.15752         1       314  
     315           rtu0315       2.88195         1       315  
     316           rtu0316       1.72248         1       316  
     317           rtu0317       0.17693         1       317  
     318           rtu0318       0.67985         1       318  
     319           rtu0319       0.84055         1       319  
     320           rtu0320       2.49381         1       320  
     321           rtu0321       1.86190         1       321  
     322           rtu0322       4.37558         1       322  
     323           rtu0323       0.55676         1       323  
     324           rtu0324       0.20525         1       324  
     325           rtu0325       0.23682         1       325  
     326           rtu0326       0.05956         1       326  
     327           rtu0327       0.25219         1       327  
     328           rtu0328       0.06249         1       328  
     329           rtu0329       0.08466         1       329  
     330           rtu0330       0.07970         1       330  
     331           rtu0331       0.18182         1       331  
     332           rtu0332       0.03301         1       332  
     333           rtu0333       0.65261         1       333  
     334           rtu0334       0.55817         1       334  
     335           rtu0335       0.47942         1       335  
     336           rtu0336       0.66200         1       336  
     337           rtu0337       0.01411         1       337  
     338           rtu0338       0.46487         1       338  
     339           rtu0339       0.37329         1       339  
     340           rtu0340       0.40938         1       340  
     341           rtu0341      15.74577         1       341  
     342           rtu0342       0.31358         1       342  
     343           rtu0343       2.74718         1       343  
     344           rtu0344       0.08110         1       344  
     345           rtu0345       0.05369         1       345  
     346           rtu0346       1.59183         1       346  
     347           rtu0347       0.71065         1       347  
     348           rtu0348       0.20345         1       348  
     349           rtu0349       0.50973         1       349  
     350           rtu0350       0.07432         1       350  
     351           rtu0351       1.10788         1       351  
     352           rtu0352       0.41045         1       352  
     353           rtu0353       0.04205         1       353  
     354           rtu0354       0.06574         1       354  
     355           rtu0355       0.02903         1       355  
     356           rtu0356      19.55774         1       356  
     357           rtu0357       0.20713         1       357  
     358           rtu0358       5.56841         1       358  
     359           rtu0359       0.95770         1       359  
     360           rtu0360       0.69945         1       360  
     361           rtu0361       0.60906         1       361  
     362           rtu0362       1.82654         1       362  
     363           rtu0363       0.52389         1       363  
     364           rtu0364       1.04396         1       364  
     365           rtu0365       1.78302         1       365  
     366           rtu0366       0.82367         1       366  
     367           rtu0367       0.52150         1       367  
     368           rtu0368       0.49028         1       368  
     369           rtu0369       0.50665         1       369  
     370           rtu0370       0.48073         1       370  
     371           rtu0371       0.41552         1       371  
     372           rtu0372       0.18255         1       372  
     373           rtu0373       1.05158         1       373  
     374           rtu0374       0.06310         1       374  
     375           rtu0375       0.44787         1       375  
     376           rtu0376       0.88350         1       376  
     377           rtu0377       2.06422         1       377  
     378           rtu0378       0.76473         1       378  
     379           rtu0379       0.12753         1       379  
     380           rtu0380       0.70837         1       380  
     381           rtu0381       0.86814         1       381  
     382           rtu0382      17.60144         1       382  
     383           rtu0383       0.60026         1       383  
     384           rtu0384       0.11669         1       384  
     385           rtu0385       0.14686         1       385  
     386           rtu0386       0.29196         1       386  
     387           rtu0387       1.11970         1       387  
     388           rtu0388       5.24528         1       388  
     389           rtu0389       0.83082         1       389  
     390           rtu0390       5.77961         1       390  
     391           rtu0391       0.02580         1       391  
     392           rtu0392       0.04470         1       392  
     393           rtu0393       1.35137         1       393  
     394           rtu0394       0.01424         1       394  
     395           rtu0395       0.76821         1       395  
     396           rtu0396       0.07299         1       396  
     397           rtu0397       0.25652         1       397  
     398           rtu0398       0.06600         1       398  
     399           rtu0399       0.39147         1       399  
     400           rtu0400       0.30785         1       400  
     401           rtu0401       0.33056         1       401  
     402           rtu0402       0.14917         1       402  
     403           rtu0403       0.75941         1       403  
     404           rtu0404       0.03242         1       404  
     405           rtu0405       0.31797         1       405  
     406           rtu0406       0.11305         1       406  
     407           rtu0407       0.06504         1       407  
     408           rtu0408       0.26648         1       408  
     409           rtu0409       0.00285         1       409  
     410           rtu0410       0.16576         1       410  
     411           rtu0411       0.52391         1       411  
     412           rtu0412       0.14427         1       412  
     413           rtu0413       0.25655         1       413  
     414           rtu0414      39.52370         1       414  
     415           rtu0415       0.76578         1       415  
     416           rtu0416      62.25898         1       416  
     417           rtu0417       0.77553         1       417  
     418           rtu0418       0.35053         1       418  
     419           rtu0419       1.18198         1       419  
     420           rtu0420       0.58892         1       420  
     421           rtu0421       0.91043         1       421  
     422           rtu0422       0.88989         1       422  
     423           rtu0423       1.84865         1       423  
     424           rtu0424       1.44291         1       424  
     425           rtu0425       0.36125         1       425  
     426           rtu0426       0.19718         1       426  
     427           rtu0427       0.25836         1       427  
     428           rtu0428       0.06494         1       428  
     429           rtu0429       1.16404         1       429  
     430           rtu0430       0.88994         1       430  
     431           rtu0431       0.64633         1       431  
     432           rtu0432       0.98556         1       432  
     433           rtu0433       0.10028         1       433  
     434           rtu0434       0.18800         1       434  
     435           rtu0435       0.10222         1       435  
     436           rtu0436       0.22432         1       436  
     437           rtu0437       0.13159         1       437  
     438           rtu0438       0.12569         1       438  
     439           rtu0439       0.15059         1       439  
     440           rtu0440       3.55022         1       440  
     441           rtu0441       0.01660         1       441  
     442           rtu0442       2.06554         1       442  
     443           rtu0443       0.74080         1       443  
     444           rtu0444       0.16759         1       444  
     445           rtu0445       1.96547         1       445  
     446           rtu0446       4.28554         1       446  
     447           rtu0447       0.08446         1       447  
     448           rtu0448       2.13673         1       448  
     449           rtu0449       0.14865         1       449  
     450           rtu0450       2.10399         1       450  
     451           rtu0451       0.20658         1       451  
     452           rtu0452      22.37086         1       452  
     453           rtu0453       1.02561         1       453  
     454           rtu0454       0.45137         1       454  
     455           rtu0455       1.90278         1       455  
     456           rtu0456       0.63470         1       456  
     457           rtu0457       3.84618         1       457  
     458           rtu0458       0.73408         1       458  
     459           rtu0459       0.18362         1       459  
     460           rtu0460       0.79600         1       460  
     461           rtu0461       0.40661         1       461  
     462           rtu0462       1.44317         1       462  
     463           rtu0463       0.15756         1       463  
     464           rtu0464       2.70674         1       464  
     465           rtu0465       0.91975         1       465  
     466           rtu0466       1.56570         1       466  
     467           rtu0467       0.15540         1       467  
     468           rtu0468       1.95960         1       468  
     469           rtu0469       0.72247         1       469  
     470           rtu0470       0.19651         1       470  
     471           rtu0471       1.08734         1       471  
     472           rtu0472       8.25954         1       472  
     473           rtu0473       3.58104         1       473  