object.cnt: written by SWAT+ editor v2.1.0 on 2024-02-20 09:21 for SWAT+ rev.60.5.4
name                   ls_area      tot_area       obj       hru      lhru       rtu       mfl       aqu       cha       res       rec      exco       dlr       can       pmp       out      lcha     aqu2d       hrd       wro  
test_CS9_final_v3   14150.39555   14150.39555     11943      5546         0      5546         0         1         0        32         0         0         0         0         0         0       818         0         0         0  
