plant.ini: written by SWAT+ editor v2.3.1 on 2023-07-23 11:06 for SWAT+ rev.60.5.7 and edited with SWATfarmR 2.0.5 on 2024-09-24 22:20:15.154591
pcom_name          plt_cnt  rot_yr_ini          plt_name     lc_status      lai_init       bm_init      phu_init      plnt_pop      yrs_init      rsd_init  
field_3444_comm_3430_1       4           1
                                                 mustard             y             1          1000             0             0             1          1000
                                                    csi1             n             0             0             0             0             0             0
                                                    alfa             n             0             0             0             0             0             0
                                                    soy1             n             0             0             0             0             0             0
field_3445_comm_3431_1       6           1
                                                    wwht             y             1          1000             0             0             1          1000
                                                    csi2             n             0             0             0             0             0             0
                                                    ryeg             n             0             0             0             0             0             0
                                                 mustard             n             0             0             0             0             0             0
                                                    csi1             n             0             0             0             0             0             0
                                                    soy2             n             0             0             0             0             0             0
field_3446_comm_3432_1       3           1
                                                 mustard             y             1          1000             0             0             1          1000
                                                    csi1             n             0             0             0             0             0             0
                                                    alfa             n             0             0             0             0             0             0
field_3447_comm_3433_1       6           1
                                                    ryeg             y             1          1000             0             0             1          1000
                                                    csi2             n             0             0             0             0             0             0
                                                    csi1             n             0             0             0             0             0             0
                                                    wwht             n             0             0             0             0             0             0
                                                    soy2             n             0             0             0             0             0             0
                                                 mustard             n             0             0             0             0             0             0
field_3448_comm_3434_1       7           1
                                                    ryeg             y             1          1000             0             0             1          1000
                                                    csi2             n             0             0             0             0             0             0
                                                    soy2             n             0             0             0             0             0             0
                                                    csi1             n             0             0             0             0             0             0
                                                    wwht             n             0             0             0             0             0             0
                                                    soy1             n             0             0             0             0             0             0
                                                 mustard             n             0             0             0             0             0             0
field_3449_comm_3435_1       6           1
                                                 mustard             y             1          1000             0             0             1          1000
                                                    csi1             n             0             0             0             0             0             0
                                                    wwht             n             0             0             0             0             0             0
                                                    csi2             n             0             0             0             0             0             0
                                                    soy2             n             0             0             0             0             0             0
                                                    soy1             n             0             0             0             0             0             0
field_3450_comm_3436_1       6           1
                                                    ryeg             y             1          1000             0             0             1          1000
                                                    csi2             n             0             0             0             0             0             0
                                                    csi1             n             0             0             0             0             0             0
                                                    wwht             n             0             0             0             0             0             0
                                                    soy2             n             0             0             0             0             0             0
                                                 mustard             n             0             0             0             0             0             0
field_3452_comm_3438_1       3           1
                                                 mustard             y             1          1000             0             0             1          1000
                                                    csi1             n             0             0             0             0             0             0
                                                    soy1             n             0             0             0             0             0             0
field_3455_comm_3441_1       5           1
                                                    wwht             y             1          1000             0             0             1          1000
                                                    soy2             n             0             0             0             0             0             0
                                                    csi2             n             0             0             0             0             0             0
                                                 mustard             n             0             0             0             0             0             0
                                                    csi1             n             0             0             0             0             0             0
field_3456_comm_3442_1       7           1
                                                    ryeg             y             1          1000             0             0             1          1000
                                                    csi2             n             0             0             0             0             0             0
                                                    soy1             n             0             0             0             0             0             0
                                                    wwht             n             0             0             0             0             0             0
                                                 mustard             n             0             0             0             0             0             0
                                                    csi1             n             0             0             0             0             0             0
                                                    soy2             n             0             0             0             0             0             0
field_3457_comm_3443_1       6           1
                                                    ryeg             y             1          1000             0             0             1          1000
                                                    csi2             n             0             0             0             0             0             0
                                                    csi1             n             0             0             0             0             0             0
                                                    wwht             n             0             0             0             0             0             0
                                                 mustard             n             0             0             0             0             0             0
                                                    soy2             n             0             0             0             0             0             0
field_3458_comm_3444_1       7           1
                                                    ryeg             y             1          1000             0             0             1          1000
                                                    csi2             n             0             0             0             0             0             0
                                                    csi1             n             0             0             0             0             0             0
                                                    wwht             n             0             0             0             0             0             0
                                                    soy2             n             0             0             0             0             0             0
                                                    soy1             n             0             0             0             0             0             0
                                                 mustard             n             0             0             0             0             0             0
field_3459_comm_3445_1       7           1
                                                    ryeg             y             1          1000             0             0             1          1000
                                                    csi2             n             0             0             0             0             0             0
                                                    csi1             n             0             0             0             0             0             0
                                                    wwht             n             0             0             0             0             0             0
                                                    soy2             n             0             0             0             0             0             0
                                                 mustard             n             0             0             0             0             0             0
                                                    soy1             n             0             0             0             0             0             0
field_3460_comm_3446_1       6           1
                                                    ryeg             y             1          1000             0             0             1          1000
                                                    csi2             n             0             0             0             0             0             0
                                                    csi1             n             0             0             0             0             0             0
                                                    wwht             n             0             0             0             0             0             0
                                                    soy2             n             0             0             0             0             0             0
                                                 mustard             n             0             0             0             0             0             0
field_3463_comm_3449_1       5           1
                                                    wwht             y             1          1000             0             0             1          1000
                                                    csi2             n             0             0             0             0             0             0
                                                    csi1             n             0             0             0             0             0             0
                                                 mustard             n             0             0             0             0             0             0
                                                    soy2             n             0             0             0             0             0             0
field_3472_comm_3458_1       6           1
                                                    ryeg             y             1          1000             0             0             1          1000
                                                    csi2             n             0             0             0             0             0             0
                                                    csi1             n             0             0             0             0             0             0
                                                    wwht             n             0             0             0             0             0             0
                                                 mustard             n             0             0             0             0             0             0
                                                    soy2             n             0             0             0             0             0             0
field_3473_comm_3459_1       7           1
                                                    ryeg             y             1          1000             0             0             1          1000
                                                    csi2             n             0             0             0             0             0             0
                                                    soy2             n             0             0             0             0             0             0
                                                    csi1             n             0             0             0             0             0             0
                                                    wwht             n             0             0             0             0             0             0
                                                 mustard             n             0             0             0             0             0             0
                                                    soy1             n             0             0             0             0             0             0
field_3474_comm_3460_1       7           1
                                                    ryeg             y             1          1000             0             0             1          1000
                                                    csi2             n             0             0             0             0             0             0
                                                    soy2             n             0             0             0             0             0             0
                                                    csi1             n             0             0             0             0             0             0
                                                    wwht             n             0             0             0             0             0             0
                                                 mustard             n             0             0             0             0             0             0
                                                    soy1             n             0             0             0             0             0             0
field_3482_comm_3466_1       6           1
                                                    ryeg             y             1          1000             0             0             1          1000
                                                    csi2             n             0             0             0             0             0             0
                                                    csi1             n             0             0             0             0             0             0
                                                    wwht             n             0             0             0             0             0             0
                                                    soy2             n             0             0             0             0             0             0
                                                 mustard             n             0             0             0             0             0             0
field_3485_comm_3469_1       7           1
                                                    ryeg             y             1          1000             0             0             1          1000
                                                    csi2             n             0             0             0             0             0             0
                                                    csi1             n             0             0             0             0             0             0
                                                    wwht             n             0             0             0             0             0             0
                                                    soy2             n             0             0             0             0             0             0
                                                 mustard             n             0             0             0             0             0             0
                                                    soy1             n             0             0             0             0             0             0
field_3490_comm_3474_1       7           1
                                                    ryeg             y             1          1000             0             0             1          1000
                                                    soy2             n             0             0             0             0             0             0
                                                    csi2             n             0             0             0             0             0             0
                                                    csi1             n             0             0             0             0             0             0
                                                    wwht             n             0             0             0             0             0             0
                                                 mustard             n             0             0             0             0             0             0
                                                    soy1             n             0             0             0             0             0             0
field_3498_comm_3482_1       7           1
                                                    wwht             y             1          1000             0             0             1          1000
                                                    csi2             n             0             0             0             0             0             0
                                                    ryeg             n             0             0             0             0             0             0
                                                 mustard             n             0             0             0             0             0             0
                                                    csi1             n             0             0             0             0             0             0
                                                    soy2             n             0             0             0             0             0             0
                                                    soy1             n             0             0             0             0             0             0
field_3503_comm_3487_1       7           1
                                                    ryeg             y             1          1000             0             0             1          1000
                                                    csi2             n             0             0             0             0             0             0
                                                 mustard             n             0             0             0             0             0             0
                                                    csi1             n             0             0             0             0             0             0
                                                    wwht             n             0             0             0             0             0             0
                                                    soy2             n             0             0             0             0             0             0
                                                    soy1             n             0             0             0             0             0             0
field_3506_comm_3490_1       6           1
                                                    wwht             y             1          1000             0             0             1          1000
                                                    csi2             n             0             0             0             0             0             0
                                                    ryeg             n             0             0             0             0             0             0
                                                 mustard             n             0             0             0             0             0             0
                                                    csi1             n             0             0             0             0             0             0
                                                    soy2             n             0             0             0             0             0             0
field_3512_comm_3496_1       6           1
                                                    ryeg             y             1          1000             0             0             1          1000
                                                    csi2             n             0             0             0             0             0             0
                                                 mustard             n             0             0             0             0             0             0
                                                    csi1             n             0             0             0             0             0             0
                                                    wwht             n             0             0             0             0             0             0
                                                    soy2             n             0             0             0             0             0             0
field_3513_comm_3497_1       6           1
                                                    ryeg             y             1          1000             0             0             1          1000
                                                    csi2             n             0             0             0             0             0             0
                                                    csi1             n             0             0             0             0             0             0
                                                    wwht             n             0             0             0             0             0             0
                                                 mustard             n             0             0             0             0             0             0
                                                    soy2             n             0             0             0             0             0             0
field_3514_comm_3498_1       3           1
                                                    wwht             y             1          1000             0             0             1          1000
                                                    csi2             n             0             0             0             0             0             0
                                                    soy2             n             0             0             0             0             0             0
field_3516_comm_3500_1       6           1
                                                 mustard             y             1          1000             0             0             1          1000
                                                    csi1             n             0             0             0             0             0             0
                                                    wwht             n             0             0             0             0             0             0
                                                    soy2             n             0             0             0             0             0             0
                                                    ryeg             n             0             0             0             0             0             0
                                                    csi2             n             0             0             0             0             0             0
field_3518_comm_3502_1       6           1
                                                    wwht             y             1          1000             0             0             1          1000
                                                    csi2             n             0             0             0             0             0             0
                                                    ryeg             n             0             0             0             0             0             0
                                                    soy2             n             0             0             0             0             0             0
                                                    csi1             n             0             0             0             0             0             0
                                                 mustard             n             0             0             0             0             0             0
field_3521_comm_3505_1       7           1
                                                    ryeg             y             1          1000             0             0             1          1000
                                                    csi2             n             0             0             0             0             0             0
                                                    csi1             n             0             0             0             0             0             0
                                                    wwht             n             0             0             0             0             0             0
                                                    soy2             n             0             0             0             0             0             0
                                                 mustard             n             0             0             0             0             0             0
                                                    soy1             n             0             0             0             0             0             0
field_3534_comm_3518_1       7           1
                                                    ryeg             y             1          1000             0             0             1          1000
                                                    csi2             n             0             0             0             0             0             0
                                                    csi1             n             0             0             0             0             0             0
                                                    wwht             n             0             0             0             0             0             0
                                                 mustard             n             0             0             0             0             0             0