reservoir.con: written by SWAT+ editor v2.1.0 on 2024-02-20 09:22 for SWAT+ rev.60.5.4
      id  name                gis_id          area           lat           lon          elev       res               wst       cst      ovfl      rule   out_tot       obj_typ    obj_id       hyd_typ          frac  
       1  res01                  943       0.01267      45.71557       9.92894     945.17968         1      s45665n9957e         0         0         0         0  
       2  res02                 1205       0.01433      45.70856       9.85753     300.10828         2      s45784n9822e         0         0         0         0  
       3  res03                 1564       0.00262      45.76085       9.91147     357.49600         3      s45786n9933e         0         0         0         0  
       4  res04                 2523       0.00615      45.74841       9.95628    1142.14001         4      s45786n9933e         0         0         0         0  
       5  res05                 2588       0.01963      45.76311       9.96990    1303.50211         5      s45786n9933e         0         0         0         0  
       6  res06                 2965       0.00820      45.80389       9.94580    1165.11520         6      s45786n9933e         0         0         0         0  
       7  res07                 2994       0.01892      45.76209       9.96474    1215.17207         7      s45786n9933e         0         0         0         0  
       8  res08                 3036       0.24152      45.78676       9.98743     339.31453         8      s45786n9933e         0         0         0         0  
       9  res09                 3314     218.29030      45.77835       9.94295     336.53484         9      s45786n9933e         0         0         0         1           sdc        67           tot       1.00000  
      10  res10                 3324       0.00351      45.74925       9.93419    1135.32996        10      s45786n9933e         0         0         0         0  
      11  res11                 3346       0.08171      45.74370       9.93732    1240.00008        11      s45786n9933e         0         0         0         0  
      12  res12                 3536       0.02799      45.62397       9.82545     187.03984        12      s45592n9807e         0         0         0         0  
      13  res13                 3537       0.05246      45.62496       9.82125     189.33552        13      s45592n9807e         0         0         0         0  
      14  res14                 3623       0.02632      45.63927       9.85419     199.19955        14      s45592n9807e         0         0         0         0  
      15  res15                 3624       0.01549      45.64105       9.85212     199.26601        15      s45592n9807e         0         0         0         0  
      16  res16                 3682       0.00471      45.64429       9.82202     208.07993        16      s45592n9807e         0         0         0         0  
      17  res17                 3816       0.05546      45.65161       9.81470     212.87506        17      s45592n9807e         0         0         0         0  
      18  res18                 3824       0.00666      45.65306       9.81270     214.03059        18      s45592n9807e         0         0         0         0  
      19  res19                 3990      12.61929      45.59388       9.84076     166.25300        19      s45592n9807e         0         0         0         0  
      20  res20                 3995       5.00309      45.59681       9.84268     166.25961        20      s45592n9807e         0         0         0         0  
      21  res21                 4036       0.04754      45.59777       9.84407     166.26195        21      s45592n9807e         0         0         0         0  
      22  res22                 4153       0.63616      45.61246       9.84710     177.13850        22      s45592n9807e         0         0         0         0  
      23  res23                 4181       0.02428      45.62010       9.82893     183.00491        23      s45592n9807e         0         0         0         0  
      24  res24                 4279       0.04881      45.61669       9.82030     179.08012        24      s45592n9807e         0         0         0         0  
      25  res25                 4312       0.15213      45.62060       9.82034     182.11090        25      s45592n9807e         0         0         0         0  
      26  res26                 4559       0.02308      45.62933       9.82981     191.76165        26      s45592n9807e         0         0         0         0  
      27  res27                 4572       0.00548      45.62896       9.82814     191.39400        27      s45592n9807e         0         0         0         0  
      28  res28                 4573       0.00642      45.63303       9.83497     195.09707        28      s45592n9807e         0         0         0         0  
      29  res29                 4580       0.26864      45.63187       9.83563     190.96583        29      s45592n9807e         0         0         0         0  
      30  res30                 5068       0.26249      45.66464       9.85414     521.72478        30      s45592n9807e         0         0         0         0  
      31  res31                 5662       0.19141      45.74390       9.93664    1242.31127        31      s45786n9933e         0         0         0         0  
      32  res32                 5666       0.13882      45.74270       9.94094    1216.89832        32      s45786n9933e         0         0         0         0  
