rout_unit.con: written by SWAT+ editor v2.1.0 on 2024-02-20 09:22 for SWAT+ rev.60.5.4
      id  name                gis_id          area           lat           lon          elev       rtu               wst       cst      ovfl      rule   out_tot       obj_typ    obj_id       hyd_typ          frac  
       1  rtu0001                  1       0.76279      45.70575       9.81739     364.90688         1      s45784n9822e         0         0         0         2            ru       245           tot       1.00000           aqu         1           rhg       1.00000  
       2  rtu0002                  2       0.74251      45.70370       9.82486     293.29695         2      s45784n9822e         0         0         0         3           sdc       696           tot       0.31954            ru        17           tot       0.68046           aqu         1           rhg       1.00000  
       3  rtu0003                  3       1.06522      45.70477       9.83145     290.39384         3      s45784n9822e         0         0         0         2            ru       482           tot       1.00000           aqu         1           rhg       1.00000  
       4  rtu0004                  4       0.64725      45.70543       9.81788     358.58973         4      s45784n9822e         0         0         0         3            ru        12           tot       0.46048            ru        18           tot       0.53952           aqu         1           rhg       1.00000  
       5  rtu0005                  5       0.13820      45.70562       9.81533     397.02417         5      s45784n9822e         0         0         0         2            ru       425           tot       1.00000           aqu         1           rhg       1.00000  
       6  rtu0006                  6       0.68646      45.70678       9.83033     296.69354         6      s45784n9822e         0         0         0         2            ru       484           tot       1.00000           aqu         1           rhg       1.00000  
       7  rtu0007                  7       0.55122      45.70570       9.81594     387.45168         7      s45784n9822e         0         0         0         2            ru       245           tot       1.00000           aqu         1           rhg       1.00000  
       8  rtu0008                  8       2.23802      45.70665       9.82704     302.75463         8      s45784n9822e         0         0         0         4            ru       310           tot       0.17642            ru       473           tot       0.25355            ru       521           tot       0.57004           aqu         1           rhg       1.00000  
       9  rtu0009                  9       1.61555      45.70659       9.82227     301.64085         9      s45784n9822e         0         0         0         2            ru        19           tot       1.00000           aqu         1           rhg       1.00000  
      10  rtu0010                 10       0.90030      45.70614       9.82294     299.11029        10      s45784n9822e         0         0         0         2            ru       392           tot       1.00000           aqu         1           rhg       1.00000  
      11  rtu0011                 11       0.93716      45.70434       9.81765     368.60610        11      s45784n9822e         0         0         0         2            ru        12           tot       1.00000           aqu         1           rhg       1.00000  
      12  rtu0012                 12       1.19073      45.70480       9.81846     347.16637        12      s45784n9822e         0         0         0         3            ru        17           tot       0.75391            ru        18           tot       0.24609           aqu         1           rhg       1.00000  
      13  rtu0013                 13       0.00953      45.70371       9.82592     288.54310        13      s45784n9822e         0         0         0         2           sdc       696           tot       1.00000           aqu         1           rhg       1.00000  
      14  rtu0014                 14       0.83893      45.70428       9.82130     329.99344        14      s45784n9822e         0         0         0         3            ru        17           tot       0.51090            ru       379           tot       0.48910           aqu         1           rhg       1.00000  
      15  rtu0015                 15       0.21376      45.70400       9.82255     307.57600        15      s45784n9822e         0         0         0         3            ru       475           tot       0.75556            ru       476           tot       0.24444           aqu         1           rhg       1.00000  
      16  rtu0016                 16       0.67041      45.70392       9.81961     345.00427        16      s45784n9822e         0         0         0         2            ru        17           tot       1.00000           aqu         1           rhg       1.00000  
      17  rtu0017                 17       3.73880      45.70486       9.82122     314.37498        17      s45784n9822e         0         0         0         3           sdc       726           tot       0.34116           sdc       725           tot       0.65884           aqu         1           rhg       1.00000  
      18  rtu0018                 18       2.02301      45.70617       9.81929     316.88162        18      s45784n9822e         0         0         0         2            ru       477           tot       1.00000           aqu         1           rhg       1.00000  
      19  rtu0019                 19       0.94428      45.70576       9.82206     295.94904        19      s45784n9822e         0         0         0         5           sdc       725           tot       0.18906           sdc       703           tot       0.20460           sdc       696           tot       0.26840            ru        17           tot       0.33794           aqu         1           rhg       1.00000  
      20  rtu0020                 20       0.42244      45.70612       9.83146     296.48215        20      s45784n9822e         0         0         0         2            ru       484           tot       1.00000           aqu         1           rhg       1.00000  
      21  rtu0021                 21       0.42651      45.70411       9.83094     282.19308        21      s45784n9822e         0         0         0         2           sdc       693           tot       1.00000           aqu         1           rhg       1.00000  
      22  rtu0022                 22       1.01872      45.71105       9.80414     399.98737        22      s45784n9822e         0         0         0         2            ru       502           tot       1.00000           aqu         1           rhg       1.00000  
      23  rtu0023                 23       0.43862      45.71059       9.79873     409.47300        23      s45784n9822e         0         0         0         2            ru        32           tot       1.00000           aqu         1           rhg       1.00000  
      24  rtu0024                 24       0.45599      45.71060       9.79613     438.96284        24      s45784n9822e         0         0         0         2            ru        33           tot       1.00000           aqu         1           rhg       1.00000  
      25  rtu0025                 25       1.07384      45.71308       9.79648     422.34548        25      s45784n9822e         0         0         0         2            ru        35           tot       1.00000           aqu         1           rhg       1.00000  
      26  rtu0026                 26       0.75898      45.71333       9.79880     401.11976        26      s45784n9822e         0         0         0         2            ru        36           tot       1.00000           aqu         1           rhg       1.00000  
      27  rtu0027                 27       0.08528      45.71067       9.80581     388.07047        27      s45784n9822e         0         0         0         2            ru        31           tot       1.00000           aqu         1           rhg       1.00000  
      28  rtu0028                 28       0.05465      45.71069       9.80488     399.11499        28      s45784n9822e         0         0         0         2            ru        22           tot       1.00000           aqu         1           rhg       1.00000  
      29  rtu0029                 29       0.19928      45.71082       9.80366     408.46903        29      s45784n9822e         0         0         0         3            ru        22           tot       0.70238            ru        32           tot       0.29762           aqu         1           rhg       1.00000  
      30  rtu0030                 30       0.68584      45.71403       9.79964     393.61278        30      s45784n9822e         0         0         0         2            ru        54           tot       1.00000           aqu         1           rhg       1.00000  
      31  rtu0031                 31       0.22225      45.71087       9.80599     383.63469        31      s45784n9822e         0         0         0         3            ru       422           tot       0.43972            ru       479           tot       0.56028           aqu         1           rhg       1.00000  
      32  rtu0032                 32       3.86011      45.71113       9.80045     395.73651        32      s45784n9822e         0         0         0         3            ru        36           tot       0.34470            ru        37           tot       0.65530           aqu         1           rhg       1.00000  
      33  rtu0033                 33       2.88474      45.71107       9.79709     418.55812        33      s45784n9822e         0         0         0         3            ru        32           tot       0.38623            ru        35           tot       0.61377           aqu         1           rhg       1.00000  
      34  rtu0034                 34       1.21979      45.71300       9.79771     404.25320        34      s45784n9822e         0         0         0         2            ru        36           tot       1.00000           aqu         1           rhg       1.00000  
      35  rtu0035                 35       0.64096      45.71209       9.79723     404.19795        35      s45784n9822e         0         0         0         2            ru        36           tot       1.00000           aqu         1           rhg       1.00000  
      36  rtu0036                 36       4.19802      45.71264       9.79978     371.00017        36      s45784n9822e         0         0         0         2            ru        37           tot       1.00000           aqu         1           rhg       1.00000  
      37  rtu0037                 37       3.54761      45.71235       9.80212     356.35276        37      s45784n9822e         0         0         0         2           sdc        37           tot       1.00000           aqu         1           rhg       1.00000  
      38  rtu0038                 38       3.18963      45.71408       9.80889     343.14643        38      s45784n9822e         0         0         0         2           sdc       727           tot       1.00000           aqu         1           rhg       1.00000  
      39  rtu0039                 39       6.82036      45.71681       9.80398     391.07618        39      s45784n9822e         0         0         0         2           sdc       199           tot       1.00000           aqu         1           rhg       1.00000  
      40  rtu0040                 40       1.22508      45.71640       9.79866     460.35992        40      s45784n9822e         0         0         0         2            ru        47           tot       1.00000           aqu         1           rhg       1.00000  
      41  rtu0041                 41       1.02887      45.71720       9.80721     408.01678        41      s45784n9822e         0         0         0         3            ru        66           tot       0.65625            ru        67           tot       0.34375           aqu         1           rhg       1.00000  
      42  rtu0042                 42       2.02841      45.71729       9.80927     363.57755        42      s45784n9822e         0         0         0         2            ru        64           tot       1.00000           aqu         1           rhg       1.00000  
      43  rtu0043                 43       0.50396      45.71834       9.80895     387.40961        43      s45784n9822e         0         0         0         2            ru        42           tot       1.00000           aqu         1           rhg       1.00000  
      44  rtu0044                 44       1.38157      45.71371       9.80758     344.52859        44      s45784n9822e         0         0         0         2            ru       503           tot       1.00000           aqu         1           rhg       1.00000  
      45  rtu0045                 45       1.58781      45.71595       9.80049     419.48568        45      s45784n9822e         0         0         0         3            ru        49           tot       0.39703            ru        56           tot       0.60297           aqu         1           rhg       1.00000  
      46  rtu0046                 46       1.10818      45.71500       9.80287     376.44157        46      s45784n9822e         0         0         0         2            ru        56           tot       1.00000           aqu         1           rhg       1.00000  
      47  rtu0047                 47       1.37979      45.71608       9.79824     457.34055        47      s45784n9822e         0         0         0         2            ru        45           tot       1.00000           aqu         1           rhg       1.00000  
      48  rtu0048                 48       1.06112      45.71656       9.80485     376.92512        48      s45784n9822e         0         0         0         2            ru        39           tot       1.00000           aqu         1           rhg       1.00000  
      49  rtu0049                 49       2.46372      45.71477       9.80088     388.18738        49      s45784n9822e         0         0         0         2            ru        54           tot       1.00000           aqu         1           rhg       1.00000  
      50  rtu0050                 50       0.98926      45.71868       9.80191     461.92044        50      s45784n9822e         0         0         0         3            ru       202           tot       0.38057            ru       518           tot       0.61943           aqu         1           rhg       1.00000  
      51  rtu0051                 51       0.60011      45.71801       9.80250     438.05236        51      s45784n9822e         0         0         0         2            ru        39           tot       1.00000           aqu         1           rhg       1.00000  
      52  rtu0052                 52       1.11906      45.71713       9.80040     451.72396        52      s45784n9822e         0         0         0         2            ru        45           tot       1.00000           aqu         1           rhg       1.00000  
      53  rtu0053                 53       0.74324      45.71506       9.80536     354.11566        53      s45784n9822e         0         0         0         2            ru        39           tot       1.00000           aqu         1           rhg       1.00000  
      54  rtu0054                 54       2.62924      45.71387       9.80109     367.79795        54      s45784n9822e         0         0         0         2            ru        36           tot       1.00000           aqu         1           rhg       1.00000  
      55  rtu0055                 55       3.05129      45.71500       9.80387     368.16949        55      s45784n9822e         0         0         0         5           sdc       199           tot       0.15177            ru        39           tot       0.33233            ru        45           tot       0.36833            ru        56           tot       0.14757           aqu         1           rhg       1.00000  
      56  rtu0056                 56       2.88793      45.71450       9.80279     363.00830        56      s45784n9822e         0         0         0         2            ru        37           tot       1.00000           aqu         1           rhg       1.00000  
      57  rtu0057                 57       2.03874      45.71557       9.80643     377.76712        57      s45784n9822e         0         0         0         3            ru        53           tot       0.74194            ru       504           tot       0.25806           aqu         1           rhg       1.00000  
      58  rtu0058                 58       0.62961      45.71630       9.79975     442.08650        58      s45784n9822e         0         0         0         2            ru        45           tot       1.00000           aqu         1           rhg       1.00000  
      59  rtu0059                 59       0.69480      45.71471       9.79729     453.80961        59      s45784n9822e         0         0         0         3            ru        60           tot       0.57801            ru        61           tot       0.42199           aqu         1           rhg       1.00000  
      60  rtu0060                 60       0.94547      45.71390       9.79733     430.36891        60      s45784n9822e         0         0         0         2            ru        34           tot       1.00000           aqu         1           rhg       1.00000  
      61  rtu0061                 61       0.75916      45.71436       9.79820     431.00950        61      s45784n9822e         0         0         0         4            ru        26           tot       0.18182            ru        34           tot       0.28458            ru        62           tot       0.53360           aqu         1           rhg       1.00000  
      62  rtu0062                 62       0.73613      45.71478       9.79857     429.21448        62      s45784n9822e         0         0         0         3            ru        30           tot       0.24307            ru        54           tot       0.75693           aqu         1           rhg       1.00000  
      63  rtu0063                 63       0.45664      45.71538       9.80924     354.04022        63      s45784n9822e         0         0         0         2           sdc       707           tot       1.00000           aqu         1           rhg       1.00000  
      64  rtu0064                 64       0.93230      45.71541       9.80978     343.48305        64      s45784n9822e         0         0         0         2            ru       440           tot       1.00000           aqu         1           rhg       1.00000  
      65  rtu0065                 65       1.26412      45.71519       9.80779     377.51606        65      s45784n9822e         0         0         0         3            ru        38           tot       0.69133            ru        57           tot       0.30867           aqu         1           rhg       1.00000  
      66  rtu0066                 66       1.75600      45.71782       9.80749     398.73397        66      s45784n9822e         0         0         0         2            ru        42           tot       1.00000           aqu         1           rhg       1.00000  
      67  rtu0067                 67       1.82589      45.71622       9.80827     379.24619        67      s45784n9822e         0         0         0         3            ru        42           tot       0.51628            ru        63           tot       0.48372           aqu         1           rhg       1.00000  
      68  rtu0068                 68       0.99524      45.71641       9.84208     382.80246        68      s45784n9822e         0         0         0         4            ru        71           tot       0.48635            ru        81           tot       0.24744            ru        91           tot       0.26621           aqu         1           rhg       1.00000  
      69  rtu0069                 69       4.65175      45.71780       9.84205     431.27857        69      s45784n9822e         0         0         0         2            ru       471           tot       1.00000           aqu         1           rhg       1.00000  
      70  rtu0070                 70       0.83427      45.71776       9.84544     380.66676        70      s45784n9822e         0         0         0         2           sdc       201           tot       1.00000           aqu         1           rhg       1.00000  
      71  rtu0071                 71       0.93947      45.71619       9.84282     365.66195        71      s45784n9822e         0         0         0         2            ru        85           tot       1.00000           aqu         1           rhg       1.00000  
      72  rtu0072                 72       0.50243      45.71747       9.83953     461.84382        72      s45784n9822e         0         0         0         3            ru        69           tot       0.71321            ru        73           tot       0.28679           aqu         1           rhg       1.00000  
      73  rtu0073                 73       0.95311      45.71670       9.83930     430.42728        73      s45784n9822e         0         0         0         3            ru        78           tot       0.46020            ru        84           tot       0.53980           aqu         1           rhg       1.00000  
      74  rtu0074                 74       1.57546      45.71539       9.84045     385.20029        74      s45784n9822e         0         0         0         3            ru        76           tot       0.28652            ru        81           tot       0.71348           aqu         1           rhg       1.00000  
      75  rtu0075                 75       0.98591      45.71699       9.84635     402.04654        75      s45784n9822e         0         0         0         4            ru        80           tot       0.31528            ru        82           tot       0.48869            ru        98           tot       0.19602           aqu         1           rhg       1.00000  
      76  rtu0076                 76       0.75718      45.71498       9.84127     361.19579        76      s45784n9822e         0         0         0         2            ru        81           tot       1.00000           aqu         1           rhg       1.00000  
      77  rtu0077                 77       1.01527      45.71467       9.83877     433.75372        77      s45784n9822e         0         0         0         2            ru        74           tot       1.00000           aqu         1           rhg       1.00000  
      78  rtu0078                 78       1.25465      45.71660       9.84080     398.05604        78      s45784n9822e         0         0         0         2            ru        74           tot       1.00000           aqu         1           rhg       1.00000  
      79  rtu0079                 79       0.36139      45.71484       9.84290     332.97695        79      s45784n9822e         0         0         0         2            ru        93           tot       1.00000           aqu         1           rhg       1.00000  
      80  rtu0080                 80       0.99885      45.71612       9.84662     382.57721        80      s45784n9822e         0         0         0         3            ru        90           tot       0.59354            ru        94           tot       0.40646           aqu         1           rhg       1.00000  
      81  rtu0081                 81       2.78791      45.71396       9.84179     345.80053        81      s45784n9822e         0         0         0         2            ru        93           tot       1.00000           aqu         1           rhg       1.00000  
      82  rtu0082                 82       0.84817      45.71658       9.84559     365.01477        82      s45784n9822e         0         0         0         2            ru        90           tot       1.00000           aqu         1           rhg       1.00000  
      83  rtu0083                 83       0.50233      45.71413       9.84106     376.37179        83      s45784n9822e         0         0         0         2            ru        81           tot       1.00000           aqu         1           rhg       1.00000  
      84  rtu0084                 84       1.01296      45.71592       9.83974     406.35107        84      s45784n9822e         0         0         0         3            ru        74           tot       0.61531            ru        78           tot       0.38469           aqu         1           rhg       1.00000  
      85  rtu0085                 85       1.37329      45.71634       9.84379     350.98644        85      s45784n9822e         0         0         0         2            ru        89           tot       1.00000           aqu         1           rhg       1.00000  
      86  rtu0086                 86       1.27844      45.71573       9.83750     421.82536        86      s45784n9822e         0         0         0         3            ru       150           tot       0.50400            ru       168           tot       0.49600           aqu         1           rhg       1.00000  
      87  rtu0087                 87       0.72072      45.71565       9.83868     436.46019        87      s45784n9822e         0         0         0         2            ru        84           tot       1.00000           aqu         1           rhg       1.00000  
      88  rtu0088                 88       0.84606      45.71423       9.83950     422.52025        88      s45784n9822e         0         0         0         3            ru        74           tot       0.37127            ru       288           tot       0.62873           aqu         1           rhg       1.00000  
      89  rtu0089                 89       0.26948      45.71666       9.84435     345.62802        89      s45784n9822e         0         0         0         2            ru       393           tot       1.00000           aqu         1           rhg       1.00000  
      90  rtu0090                 90       3.60466      45.71460       9.84477     336.86112        90      s45784n9822e         0         0         0         2            ru       393           tot       1.00000           aqu         1           rhg       1.00000  
      91  rtu0091                 91       0.25245      45.71519       9.84234     342.68639        91      s45784n9822e         0         0         0         3            ru        79           tot       0.53097            ru        81           tot       0.46903           aqu         1           rhg       1.00000  
      92  rtu0092                 92       0.28031      45.71538       9.84292     346.37996        92      s45784n9822e         0         0         0         3            ru        91           tot       0.50968            ru       469           tot       0.49032           aqu         1           rhg       1.00000  
      93  rtu0093                 93       1.00318      45.71382       9.84305     321.34737        93      s45784n9822e         0         0         0         2           sdc       201           tot       1.00000           aqu         1           rhg       1.00000  
      94  rtu0094                 94       0.46848      45.71544       9.84656     366.06328        94      s45784n9822e         0         0         0         2            ru        90           tot       1.00000           aqu         1           rhg       1.00000  
      95  rtu0095                 95       0.86502      45.71597       9.84911     425.17000        95      s45784n9822e         0         0         0         2            ru        96           tot       1.00000           aqu         1           rhg       1.00000  
      96  rtu0096                 96       1.54349      45.71494       9.84930     408.49651        96      s45784n9822e         0         0         0         2            ru       172           tot       1.00000           aqu         1           rhg       1.00000  
      97  rtu0097                 97       0.52999      45.71656       9.85297     563.81705        97      s45784n9822e         0         0         0         2            ru       532           tot       1.00000           aqu         1           rhg       1.00000  
      98  rtu0098                 98       0.78127      45.71585       9.84761     391.85384        98      s45784n9822e         0         0         0         4            ru        80           tot       0.28143            ru        94           tot       0.40244            ru       103           tot       0.31614           aqu         1           rhg       1.00000  
      99  rtu0099                 99       0.80530      45.71549       9.84856     396.86494        99      s45784n9822e         0         0         0         4            ru        96           tot       0.23211            ru        98           tot       0.24165            ru       103           tot       0.52623           aqu         1           rhg       1.00000  
     100  rtu0100                100       1.79432      45.71719       9.84767     445.51873       100      s45784n9822e         0         0         0         3            ru        75           tot       0.53568            ru        95           tot       0.46432           aqu         1           rhg       1.00000  
     101  rtu0101                101       0.86683      45.71759       9.84994     519.21113       101      s45784n9822e         0         0         0         2            ru       532           tot       1.00000           aqu         1           rhg       1.00000  
     102  rtu0102                102       0.56410      45.71631       9.84953     443.75766       102      s45784n9822e         0         0         0         3            ru        95           tot       0.33573            ru       530           tot       0.66427           aqu         1           rhg       1.00000  