soils.sol: written by SWAT+ editor v2.1.0 on 2024-02-20 09:22 for SWAT+ rev.60.5.4
name                            nly           hyd_grp        dp_tot    anion_excl      perc_crk  texture                              dp            bd           awc        soil_k        carbon          clay          silt          sand          rock           alb        usle_k            ec         caco3            ph  
RCH1                              4                 C     950.00000       0.50000       0.50000  L                          
                                                                                                                                30.00000       1.18490       0.16330      36.20600       5.80000      18.00000      42.00000      40.00000       0.00000       0.01110       0.13530       1.00000       0.00000       0.00000  
                                                                                                                               200.00000       1.43180       0.16330       7.91290       1.80000      24.00000      51.00000      25.00000       0.00000       0.17390       0.14710       0.00000       0.00000       0.00000  
                                                                                                                               600.00000       1.49300       0.16160       5.51840       0.90000      24.00000      52.00000      24.00000       0.00000       0.32300       0.18110       0.00000       0.00000       0.00000  
                                                                                                                               950.00000       1.54500       0.15130       5.38920       0.40000      23.00000      48.00000      29.00000       0.00000       0.45570       0.18210       0.00000       0.00000       0.00000  
RGZ1                              3                 D     500.00000       0.50000       0.50000  C                          
                                                                                                                               100.00000       1.35570       0.13090       2.84190       3.30000      41.00000      28.00000      31.00000       0.00000       0.06200       0.11500       1.00000       0.00000       0.00000  
                                                                                                                               300.00000       1.51250       0.17890      18.11660       1.40000      10.00000      62.00000      28.00000       0.00000       0.22900       0.17440       0.00000       0.00000       0.00000  
                                                                                                                               500.00000       1.40460       0.13650       1.70820       0.90000      41.00000      34.00000      25.00000       0.00000       0.32300       0.15170       0.00000       0.00000       0.00000  
NNZ1                              4                 D    1400.00000       0.50000       0.50000  CL                         
                                                                                                                               250.00000       1.43560       0.14210       4.27720       1.60000      32.00000      38.00000      30.00000       0.00000       0.19960       0.13440       1.00000       0.00000       0.00000  
                                                                                                                               600.00000       1.46860       0.14610       3.09930       0.70000      32.00000      42.00000      26.00000       0.00000       0.37070       0.16890       0.00000       0.00000       0.00000  
                                                                                                                              1100.00000       1.49710       0.14490       3.36980       0.50000      30.00000      42.00000      28.00000       0.00000       0.42540       0.17190       0.00000       0.00000       0.00000  
                                                                                                                              1400.00000       1.54940       0.17790       9.76340       0.80000      14.00000      62.00000      24.00000       0.00000       0.34600       0.20630       0.00000       0.00000       0.00000  
VTT1                              5                 C    2010.00000       0.50000       0.50000  CL                         
                                                                                                                               300.00000       1.44090       0.13490       5.83920       2.10000      30.00000      33.00000      37.00000       0.00000       0.14150       0.12550       1.00000       0.00000       0.00000  
                                                                                                                               600.00000       1.50320       0.14840       7.39570       1.10000      23.00000      45.00000      32.00000       0.00000       0.28150       0.16140       0.00000       0.00000       0.00000  
                                                                                                                              1200.00000       1.47450       0.15220       6.53260       1.30000      25.00000      46.00000      29.00000       0.00000       0.24530       0.15360       0.00000       0.00000       0.00000  
                                                                                                                              1650.00000       1.50260       0.14020      10.48630       1.40000      21.00000      41.00000      38.00000       0.00000       0.22900       0.14740       0.00000       0.00000       0.00000  
                                                                                                                              2010.00000       1.59350       0.06000      87.44680       0.00000       5.00000      10.00000      80.00000       0.00000       0.00000       0.13540       0.00000       0.00000       0.00000  
AMB1                              3                 C    2010.00000       0.50000       0.50000  SL                         
                                                                                                                               800.00000       1.51060       0.11180      39.27810       1.70000      10.00000      33.00000      57.00000       0.00000       0.18630       0.14440       1.00000       0.00000       0.00000  
                                                                                                                              1200.00000       1.57810       0.13020      12.94330       0.60000      17.00000      40.00000      43.00000       0.00000       0.39710       0.17660       0.00000       0.00000       0.00000  
                                                                                                                              2010.00000       1.55290       0.04710     136.11840       0.10000       3.00000       9.00000      88.00000       0.00000       0.56010       0.09920       0.00000       0.00000       0.00000  
LPO1                              6                 C    2010.00000       0.50000       0.50000  SL                         
                                                                                                                               400.00000       1.55030       0.10970      30.09130       1.20000      12.00000      32.00000      56.00000       0.00000       0.26280       0.15850       1.00000       0.00000       0.00000  
                                                                                                                               600.00000       1.61390       0.10590      21.24970       0.30000      14.00000      31.00000      55.00000       0.00000       0.48810       0.17760       0.00000       0.00000       0.00000  
                                                                                                                               820.00000       1.61370       0.10800      20.70100       0.30000      14.00000      32.00000      54.00000       0.00000       0.48810       0.17820       0.00000       0.00000       0.00000  
                                                                                                                              1050.00000       1.61770       0.09960      16.92560       0.20000      17.00000      26.00000      57.00000       0.00000       0.52290       0.17090       0.00000       0.00000       0.00000  
                                                                                                                              1700.00000       1.55580       0.14060       4.77340       0.20000      25.00000      42.00000      33.00000       0.00000       0.52290       0.17540       0.00000       0.00000       0.00000  
                                                                                                                              2010.00000       1.54100       0.15200       3.61890       0.10000      26.00000      48.00000      26.00000       0.00000       0.56010       0.18380       0.00000       0.00000       0.00000  
SPT1                              5                 C    2010.00000       0.50000       0.50000  SIL                        
                                                                                                                               400.00000       1.51670       0.16890      20.34670       1.40000      10.00000      58.00000      32.00000       0.00000       0.22900       0.16590       1.00000       0.00000       0.00000  
                                                                                                                               560.00000       1.54440       0.16280      11.49190       0.90000      15.00000      55.00000      30.00000       0.00000       0.32300       0.18330       0.00000       0.00000       0.00000  
                                                                                                                               780.00000       1.57750       0.16300       9.60400       0.50000      15.00000      56.00000      29.00000       0.00000       0.42540       0.19440       0.00000       0.00000       0.00000  
                                                                                                                              1100.00000       1.52950       0.15780       4.00920       0.30000      25.00000      51.00000      24.00000       0.00000       0.48810       0.18970       0.00000       0.00000       0.00000  
                                                                                                                              2010.00000       1.54580       0.13370       4.49040       0.30000      27.00000      37.00000      36.00000       0.00000       0.48810       0.16970       0.00000       0.00000       0.00000  
CAT1                              6                 D    2010.00000       0.50000       0.50000  SICL                       
                                                                                                                               400.00000       1.37750       0.16360       4.54000       1.70000      32.00000      52.00000      16.00000       0.00000       0.18630       0.16440       1.00000       0.00000       0.00000  
                                                                                                                               610.00000       1.42710       0.16330       3.04430       0.80000      32.00000      53.00000      15.00000       0.00000       0.34600       0.20720       0.00000       0.00000       0.00000  
                                                                                                                               850.00000       1.40390       0.15840       2.33460       0.60000      36.00000      51.00000      13.00000       0.00000       0.39710       0.21610       0.00000       0.00000       0.00000  
                                                                                                                              1250.00000       1.48760       0.14390       2.77810       0.40000      32.00000      41.00000      27.00000       0.00000       0.45570       0.17120       0.00000       0.00000       0.00000  
                                                                                                                              1450.00000       1.53030       0.14020       2.85960       0.00000      30.00000      40.00000      30.00000       0.00000       0.00000       0.17160       0.00000       0.00000       0.00000  
                                                                                                                              2010.00000       1.62130       0.06620      47.52660       0.00000      10.00000      15.00000      75.00000       0.00000       0.00000       0.15140       0.00000       0.00000       0.00000  
RMG2                              4                 D    2010.00000       0.50000       0.50000  CL                         
                                                                                                                               300.00000       1.39890       0.15210       3.67780       1.50000      34.00000      45.00000      21.00000       0.00000       0.21380       0.14790       1.00000       0.00000       0.00000  
                                                                                                                               500.00000       1.45300       0.14930       2.85660       0.70000      33.00000      44.00000      23.00000       0.00000       0.37070       0.17320       0.00000       0.00000       0.00000  
                                                                                                                               720.00000       1.60100       0.06340      50.78740       0.30000      10.00000      13.00000      77.00000       0.00000       0.48810       0.14120       0.00000       0.00000       0.00000  
                                                                                                                              2010.00000       1.55420       0.04240     120.77840       0.10000       4.00000       6.00000      90.00000       0.00000       0.56010       0.08570       0.00000       0.00000       0.00000  
ZER1                              5                 C    2010.00000       0.50000       0.50000  L                          
                                                                                                                               260.00000       1.46320       0.15130      13.34250       1.90000      19.00000      46.00000      35.00000       0.00000       0.16230       0.14020       1.00000       0.00000       0.00000  
                                                                                                                               550.00000       1.47690       0.15890       5.71690       1.10000      25.00000      50.00000      25.00000       0.00000       0.28150       0.16880       0.00000       0.00000       0.00000  
                                                                                                                               700.00000       1.31340       0.13480       1.29750       0.50000      49.00000      37.00000      14.00000       0.00000       0.42540       0.17740       0.00000       0.00000       0.00000  
                                                                                                                               800.00000       1.32960       0.12850       0.79380       0.50000      51.00000      28.00000      21.00000       0.00000       0.42540       0.14920       0.00000       0.00000       0.00000  
                                                                                                                              2010.00000       1.51940       0.11820       1.96190       0.30000      36.00000      21.00000      43.00000       0.00000       0.48810       0.14760       0.00000       0.00000       0.00000  
CFC1                              6                 C    2010.00000       0.50000       0.50000  L                          
                                                                                                                               280.00000       1.53270       0.11910      21.86840       1.40000      15.00000      34.00000      51.00000       0.00000       0.22900       0.14870       1.00000       0.00000       0.00000  
                                                                                                                               500.00000       1.57590       0.10260      12.70830       0.80000      21.00000      23.00000      56.00000       0.00000       0.34600       0.15710       0.00000       0.00000       0.00000  
                                                                                                                               600.00000       1.58490       0.08160      30.77280       0.80000      14.00000      18.00000      68.00000       0.00000       0.34600       0.15560       0.00000       0.00000       0.00000  
                                                                                                                               700.00000       1.59470       0.07820      44.41950       0.50000      10.00000      20.00000      70.00000       0.00000       0.42540       0.16610       0.00000       0.00000       0.00000  
                                                                                                                               800.00000       1.55980       0.05000     111.45090       0.20000       4.00000      10.00000      86.00000       0.00000       0.52290       0.10670       0.00000       0.00000       0.00000  
                                                                                                                              2010.00000       1.54810       0.04620     190.83420       0.00000       2.00000       9.00000      89.00000       0.00000       0.00000       0.09780       0.00000       0.00000       0.00000  
RMG3                              5                 C    2010.00000       0.50000       0.50000  L                          
                                                                                                                               300.00000       1.37020       0.13380      19.63240       3.80000      21.00000      32.00000      47.00000       0.00000       0.04390       0.12890       1.00000       0.00000       0.00000  
                                                                                                                               450.00000       1.54900       0.14430       8.63020       0.70000      20.00000      45.00000      35.00000       0.00000       0.37070       0.17570       0.00000       0.00000       0.00000  
                                                                                                                              1050.00000       1.51700       0.13350       3.66010       0.50000      30.00000      35.00000      35.00000       0.00000       0.42540       0.16470       0.00000       0.00000       0.00000  
                                                                                                                              1500.00000       1.59780       0.07640      49.22160       0.40000       9.00000      20.00000      71.00000       0.00000       0.45570       0.16690       0.00000       0.00000       0.00000  
                                                                                                                              2010.00000       1.61090       0.07550      48.33510       0.20000       9.00000      20.00000      71.00000       0.00000       0.52290       0.16780       0.00000       0.00000       0.00000  
PTC1                              7                 D    2010.00000       0.50000       0.50000  SICL                       
                                                                                                                               120.00000       1.36610       0.15990       5.24990       2.10000      32.00000      49.00000      19.00000       0.00000       0.14150       0.14710       1.00000       0.00000       0.00000  
                                                                                                                               310.00000       1.43860       0.17140       5.90340       1.40000      25.00000      56.00000      19.00000       0.00000       0.22900       0.17490       0.00000       0.00000       0.00000  
                                                                                                                               520.00000       1.34720       0.14890       2.38690       1.10000      41.00000      46.00000      13.00000       0.00000       0.28150       0.18530       0.00000       0.00000       0.00000  
                                                                                                                               690.00000       1.33240       0.13520       1.45050       0.90000      47.00000      36.00000      17.00000       0.00000       0.32300       0.16000       0.00000       0.00000       0.00000  
                                                                                                                               880.00000       1.34600       0.13310       1.27510       0.90000      47.00000      33.00000      20.00000       0.00000       0.32300       0.15130       0.00000       0.00000       0.00000  
                                                                                                                              1650.00000       1.62200       0.07290      15.80400       0.30000      21.00000       8.00000      71.00000       0.00000       0.48810       0.12720       0.00000       0.00000       0.00000  
                                                                                                                              2010.00000       1.62130       0.06620      47.52660       0.00000      10.00000      15.00000      75.00000       0.00000       0.00000       0.15140       0.00000       0.00000       0.00000  
DER1                              4                 D    2010.00000       0.50000       0.50000  SIL                        
                                                                                                                               350.00000       1.49490       0.15680      17.55350       1.60000      14.00000      51.00000      35.00000       0.00000       0.19960       0.15090       1.00000       0.00000       0.00000  
                                                                                                                               800.00000       1.49270       0.13670       3.10350       0.60000      32.00000      36.00000      32.00000       0.00000       0.39710       0.16330       0.00000       0.00000       0.00000  
                                                                                                                              1800.00000       1.60260       0.09740      13.61640       0.40000      20.00000      22.00000      58.00000       0.00000       0.45570       0.16270       0.00000       0.00000       0.00000  
                                                                                                                              2010.00000       1.63220       0.08630      37.34550       0.00000      10.00000      25.00000      65.00000       0.00000       0.00000       0.17730       0.00000       0.00000       0.00000  
VTT2                              2                 D    2010.00000       0.50000       0.50000  L                          
                                                                                                                               400.00000       1.48210       0.14950      13.81270       1.70000      18.00000      46.00000      36.00000       0.00000       0.18630       0.14360       1.00000       0.00000       0.00000  
                                                                                                                              2010.00000       1.42650       0.15650       2.66100       0.70000      34.00000      49.00000      17.00000       0.00000       0.37070       0.19270       0.00000       0.00000       0.00000  
GVN1                              4                 C    1050.00000       0.50000       0.50000  L                          
                                                                                                                                30.00000       1.33110       0.13170      33.77750       4.30000      16.00000      32.00000      52.00000       0.00000       0.03110       0.13270       1.00000       0.00000       0.00000  
                                                                                                                               150.00000       1.49870       0.13570      10.27010       1.50000      22.00000      38.00000      40.00000       0.00000       0.21380       0.14200       0.00000       0.00000       0.00000  
                                                                                                                               850.00000       1.39240       0.13090       0.88250       0.30000      46.00000      28.00000      26.00000       0.00000       0.48810       0.15060       0.00000       0.00000       0.00000  
                                                                                                                              1050.00000       1.64700       0.14140      17.45330       0.00000      10.00000      50.00000      40.00000       0.00000       0.00000       0.19100       0.00000       0.00000       0.00000  
RAS1                              2                 B     340.00000       0.50000       0.50000  SIL                        
                                                                                                                               230.00000       0.95840       0.21390      78.86950       7.10000      10.00000      60.00000      30.00000       0.00000       0.00450       0.15320       1.00000       0.00000       0.00000  
                                                                                                                               340.00000       1.08870       0.20540      67.19970       5.70000       8.00000      61.00000      31.00000       0.00000       0.01190       0.15440       0.00000       0.00000       0.00000  
FIL1                              5                 C    2010.00000       0.50000       0.50000  L                          
                                                                                                                               100.00000       1.24950       0.14090      29.62030       5.70000      20.00000      31.00000      49.00000       0.00000       0.01190       0.12910       1.00000       0.00000       0.00000  
                                                                                                                               700.00000       1.48000       0.14240      13.87320       1.80000      19.00000      42.00000      39.00000       0.00000       0.17390       0.13930       0.00000       0.00000       0.00000  
                                                                                                                               850.00000       1.63390       0.08370      23.90610       0.00000      15.00000      20.00000      65.00000       0.00000       0.00000       0.16580       0.00000       0.00000       0.00000  
                                                                                                                              1100.00000       1.54800       0.12780       4.34370       0.30000      28.00000      33.00000      39.00000       0.00000       0.48810       0.16590       0.00000       0.00000       0.00000  
                                                                                                                              2010.00000       1.39220       0.12750       0.76740       0.60000      47.00000      24.00000      29.00000       0.00000       0.39710       0.14240       0.00000       0.00000       0.00000  
VLS1                              4                 C    2010.00000       0.50000       0.50000  L                          
                                                                                                                               250.00000       1.43470       0.13030      27.04940       2.70000      15.00000      36.00000      49.00000       0.00000       0.09360       0.13530       1.00000       0.00000       0.00000  
                                                                                                                               500.00000       1.59250       0.11450      22.63320       0.60000      13.00000      35.00000      52.00000       0.00000       0.39710       0.17810       0.00000       0.00000       0.00000  
                                                                                                                               800.00000       1.50160       0.12630       2.64370       0.60000      34.00000      28.00000      38.00000       0.00000       0.39710       0.15470       0.00000       0.00000       0.00000  
                                                                                                                              2010.00000       1.56250       0.10870       5.56250       0.60000      28.00000      21.00000      51.00000       0.00000       0.39710       0.15190       0.00000       0.00000       0.00000  
MCN1                              6                 C    2010.00000       0.50000       0.50000  SL                         