time.sim: written by SWAT+ editor v2.1.0 on 2024-02-20 09:21 for SWAT+ rev.60.5.4 and edited with SWATfarmR 2.0.5 on 2024-09-24 22:20:59.180545
day_start  yrc_start   day_end   yrc_end      step   
        0       2002         0      2020         0
