topography.hyd: written by SWAT+ editor v2.1.0 on 2024-02-20 09:22 for SWAT+ rev.60.5.4
name                       slp       slp_len       lat_len      dist_cha         depos  
topohru0001            0.31025      30.00000      30.00000     121.00000       0.00000  
topohru0002            0.12554      30.00000      30.00000     121.00000       0.00000  
topohru0003            0.08981      30.00000      30.00000     121.00000       0.00000  
topohru0004            0.35191      30.00000      30.00000     121.00000       0.00000  
topohru0005            0.15768      30.00000      30.00000     121.00000       0.00000  
topohru0006            0.14755      30.00000      30.00000     121.00000       0.00000  
topohru0007            0.26006      30.00000      30.00000     121.00000       0.00000  
topohru0008            0.03382      30.00000      30.00000     121.00000       0.00000  
topohru0009            0.05867      30.00000      30.00000     121.00000       0.00000  
topohru0010            0.06113      30.00000      30.00000     121.00000       0.00000  
topohru0011            0.30224      30.00000      30.00000     121.00000       0.00000  
topohru0012            0.31745      30.00000      30.00000     121.00000       0.00000  
topohru0013            0.08070      30.00000      30.00000     121.00000       0.00000  
topohru0014            0.25406      30.00000      30.00000     121.00000       0.00000  
topohru0015            0.19331      30.00000      30.00000     121.00000       0.00000  
topohru0016            0.23954      30.00000      30.00000     121.00000       0.00000  
topohru0017            0.24246      30.00000      30.00000     121.00000       0.00000  
topohru0018            0.30264      30.00000      30.00000     121.00000       0.00000  
topohru0019            0.09849      30.00000      30.00000     121.00000       0.00000  
topohru0020            0.12166      30.00000      30.00000     121.00000       0.00000  
topohru0021            0.10960      30.00000      30.00000     121.00000       0.00000  
topohru0022            0.25475      30.00000      30.00000     121.00000       0.00000  
topohru0023            0.21823      30.00000      30.00000     121.00000       0.00000  
topohru0024            0.27743      30.00000      30.00000     121.00000       0.00000  
topohru0025            0.17753      30.00000      30.00000     121.00000       0.00000  
topohru0026            0.24196      30.00000      30.00000     121.00000       0.00000  
topohru0027            0.12419      30.00000      30.00000     121.00000       0.00000  
topohru0028            0.23736      30.00000      30.00000     121.00000       0.00000  
topohru0029            0.12405      30.00000      30.00000     121.00000       0.00000  
topohru0030            0.40217      30.00000      30.00000     121.00000       0.00000  
topohru0031            0.19911      30.00000      30.00000     121.00000       0.00000  
topohru0032            0.19361      30.00000      30.00000     121.00000       0.00000  
topohru0033            0.21867      30.00000      30.00000     121.00000       0.00000  
topohru0034            0.23974      30.00000      30.00000     121.00000       0.00000  
topohru0035            0.22429      30.00000      30.00000     121.00000       0.00000  
topohru0036            0.33348      30.00000      30.00000     121.00000       0.00000  
topohru0037            0.39339      30.00000      30.00000     121.00000       0.00000  
topohru0038            0.18581      30.00000      30.00000     121.00000       0.00000  
topohru0039            0.52585      30.00000      30.00000     121.00000       0.00000  
topohru0040            0.42208      30.00000      30.00000     121.00000       0.00000  
topohru0041            0.43035      30.00000      30.00000     121.00000       0.00000  
topohru0042            0.38628      30.00000      30.00000     121.00000       0.00000  
topohru0043            0.30409      30.00000      30.00000     121.00000       0.00000  
topohru0044            0.16941      30.00000      30.00000     121.00000       0.00000  
topohru0045            0.32255      30.00000      30.00000     121.00000       0.00000  
topohru0046            0.23683      30.00000      30.00000     121.00000       0.00000  
topohru0047            0.33228      30.00000      30.00000     121.00000       0.00000  
topohru0048            0.33072      30.00000      30.00000     121.00000       0.00000  
topohru0049            0.32527      30.00000      30.00000     121.00000       0.00000  
topohru0050            0.43351      30.00000      30.00000     121.00000       0.00000  
topohru0051            0.49978      30.00000      30.00000     121.00000       0.00000  
topohru0052            0.34520      30.00000      30.00000     121.00000       0.00000  
topohru0053            0.32039      30.00000      30.00000     121.00000       0.00000  
topohru0054            0.33328      30.00000      30.00000     121.00000       0.00000  
topohru0055            0.23689      30.00000      30.00000     121.00000       0.00000  
topohru0056            0.34952      30.00000      30.00000     121.00000       0.00000  
topohru0057            0.23785      30.00000      30.00000     121.00000       0.00000  
topohru0058            0.38155      30.00000      30.00000     121.00000       0.00000  
topohru0059            0.23422      30.00000      30.00000     121.00000       0.00000  
topohru0060            0.43679      30.00000      30.00000     121.00000       0.00000  
topohru0061            0.36030      30.00000      30.00000     121.00000       0.00000  
topohru0062            0.36444      30.00000      30.00000     121.00000       0.00000  
topohru0063            0.30179      30.00000      30.00000     121.00000       0.00000  
topohru0064            0.22986      30.00000      30.00000     121.00000       0.00000  
topohru0065            0.29497      30.00000      30.00000     121.00000       0.00000  
topohru0066            0.44643      30.00000      30.00000     121.00000       0.00000  
topohru0067            0.29302      30.00000      30.00000     121.00000       0.00000  
topohru0068            0.39818      30.00000      30.00000     121.00000       0.00000  
topohru0069            0.57889      30.00000      30.00000     121.00000       0.00000  
topohru0070            0.58929      30.00000      30.00000     121.00000       0.00000  
topohru0071            0.33029      30.00000      30.00000     121.00000       0.00000  
topohru0072            0.43209      30.00000      30.00000     121.00000       0.00000  
topohru0073            0.47244      30.00000      30.00000     121.00000       0.00000  
topohru0074            0.40523      30.00000      30.00000     121.00000       0.00000  
topohru0075            0.71073      30.00000      30.00000     121.00000       0.00000  
topohru0076            0.39849      30.00000      30.00000     121.00000       0.00000  
topohru0077            0.34269      30.00000      30.00000     121.00000       0.00000  
topohru0078            0.42626      30.00000      30.00000     121.00000       0.00000  
topohru0079            0.22817      30.00000      30.00000     121.00000       0.00000  
topohru0080            0.39981      30.00000      30.00000     121.00000       0.00000  
topohru0081            0.37511      30.00000      30.00000     121.00000       0.00000  
topohru0082            0.42047      30.00000      30.00000     121.00000       0.00000  
topohru0083            0.49789      30.00000      30.00000     121.00000       0.00000  
topohru0084            0.48432      30.00000      30.00000     121.00000       0.00000  
topohru0085            0.28755      30.00000      30.00000     121.00000       0.00000  
topohru0086            0.32868      30.00000      30.00000     121.00000       0.00000  
topohru0087            0.34027      30.00000      30.00000     121.00000       0.00000  
topohru0088            0.39006      30.00000      30.00000     121.00000       0.00000  
topohru0089            0.22598      30.00000      30.00000     121.00000       0.00000  
topohru0090            0.26934      30.00000      30.00000     121.00000       0.00000  
topohru0091            0.21533      30.00000      30.00000     121.00000       0.00000  
topohru0092            0.25580      30.00000      30.00000     121.00000       0.00000  
topohru0093            0.18941      30.00000      30.00000     121.00000       0.00000  
topohru0094            0.24087      30.00000      30.00000     121.00000       0.00000  
topohru0095            0.49290      30.00000      30.00000     121.00000       0.00000  
topohru0096            0.38657      30.00000      30.00000     121.00000       0.00000  
topohru0097            0.43842      30.00000      30.00000     121.00000       0.00000  
topohru0098            0.36209      30.00000      30.00000     121.00000       0.00000  
topohru0099            0.32308      30.00000      30.00000     121.00000       0.00000  
topohru0100            0.35928      30.00000      30.00000     121.00000       0.00000  
topohru0101            0.32675      30.00000      30.00000     121.00000       0.00000  
topohru0102            0.45054      30.00000      30.00000     121.00000       0.00000  
topohru0103            0.19628      30.00000      30.00000     121.00000       0.00000  
topohru0104            0.41848      30.00000      30.00000     121.00000       0.00000  
topohru0105            0.68294      30.00000      30.00000     121.00000       0.00000  
topohru0106            0.67864      30.00000      30.00000     121.00000       0.00000  
topohru0107            0.55971      30.00000      30.00000     121.00000       0.00000  
topohru0108            0.42180      30.00000      30.00000     121.00000       0.00000  
topohru0109            0.54557      30.00000      30.00000     121.00000       0.00000  
topohru0110            0.44209      30.00000      30.00000     121.00000       0.00000  
topohru0111            0.56880      30.00000      30.00000     121.00000       0.00000  
topohru0112            0.30771      30.00000      30.00000     121.00000       0.00000  
topohru0113            0.24933      30.00000      30.00000     121.00000       0.00000  
topohru0114            0.28246      30.00000      30.00000     121.00000       0.00000  
topohru0115            0.25473      30.00000      30.00000     121.00000       0.00000  
topohru0116            0.38722      30.00000      30.00000     121.00000       0.00000  
topohru0117            0.36462      30.00000      30.00000     121.00000       0.00000  
topohru0118            0.51841      30.00000      30.00000     121.00000       0.00000  
topohru0119            0.35250      30.00000      30.00000     121.00000       0.00000  
topohru0120            0.17626      30.00000      30.00000     121.00000       0.00000  
topohru0121            0.46217      30.00000      30.00000     121.00000       0.00000  
topohru0122            0.12019      30.00000      30.00000     121.00000       0.00000  
topohru0123            0.27001      30.00000      30.00000     121.00000       0.00000  
topohru0124            0.23499      30.00000      30.00000     121.00000       0.00000  
topohru0125            0.31372      30.00000      30.00000     121.00000       0.00000  
topohru0126            0.33363      30.00000      30.00000     121.00000       0.00000  
topohru0127            0.64541      30.00000      30.00000     121.00000       0.00000  
topohru0128            0.24606      30.00000      30.00000     121.00000       0.00000  
topohru0129            0.30404      30.00000      30.00000     121.00000       0.00000  
topohru0130            0.31133      30.00000      30.00000     121.00000       0.00000  
topohru0131            0.46499      30.00000      30.00000     121.00000       0.00000  
topohru0132            0.43722      30.00000      30.00000     121.00000       0.00000  
topohru0133            0.57701      30.00000      30.00000     121.00000       0.00000  
topohru0134            0.55865      30.00000      30.00000     121.00000       0.00000  
topohru0135            0.56823      30.00000      30.00000     121.00000       0.00000  
topohru0136            0.54239      30.00000      30.00000     121.00000       0.00000  
topohru0137            0.66549      30.00000      30.00000     121.00000       0.00000  
topohru0138            0.42607      30.00000      30.00000     121.00000       0.00000  
topohru0139            0.42915      30.00000      30.00000     121.00000       0.00000  
topohru0140            0.28696      30.00000      30.00000     121.00000       0.00000  
topohru0141            0.45386      30.00000      30.00000     121.00000       0.00000  
topohru0142            0.43257      30.00000      30.00000     121.00000       0.00000  
topohru0143            0.25895      30.00000      30.00000     121.00000       0.00000  
topohru0144            0.53463      30.00000      30.00000     121.00000       0.00000  
topohru0145            0.20587      30.00000      30.00000     121.00000       0.00000  
topohru0146            0.30900      30.00000      30.00000     121.00000       0.00000  
topohru0147            0.38072      30.00000      30.00000     121.00000       0.00000  
topohru0148            0.27522      30.00000      30.00000     121.00000       0.00000  
topohru0149            0.11583      30.00000      30.00000     121.00000       0.00000  
topohru0150            0.38721      30.00000      30.00000     121.00000       0.00000  
topohru0151            0.14344      30.00000      30.00000     121.00000       0.00000  
topohru0152            0.45648      30.00000      30.00000     121.00000       0.00000  
topohru0153            0.40900      30.00000      30.00000     121.00000       0.00000  
topohru0154            0.37587      30.00000      30.00000     121.00000       0.00000  
topohru0155            0.18134      30.00000      30.00000     121.00000       0.00000  
topohru0156            0.36447      30.00000      30.00000     121.00000       0.00000  
topohru0157            0.16761      30.00000      30.00000     121.00000       0.00000  
topohru0158            0.45432      30.00000      30.00000     121.00000       0.00000  
topohru0159            0.34032      30.00000      30.00000     121.00000       0.00000  
topohru0160            0.18949      30.00000      30.00000     121.00000       0.00000  
topohru0161            0.24557      30.00000      30.00000     121.00000       0.00000  
topohru0162            0.35673      30.00000      30.00000     121.00000       0.00000  
topohru0163            0.25740      30.00000      30.00000     121.00000       0.00000  
topohru0164            0.36482      30.00000      30.00000     121.00000       0.00000  
topohru0165            0.33016      30.00000      30.00000     121.00000       0.00000  
topohru0166            0.25036      30.00000      30.00000     121.00000       0.00000  
topohru0167            0.34841      30.00000      30.00000     121.00000       0.00000  
topohru0168            0.46546      30.00000      30.00000     121.00000       0.00000  
topohru0169            0.35727      30.00000      30.00000     121.00000       0.00000  
topohru0170            0.30950      30.00000      30.00000     121.00000       0.00000  
topohru0171            0.39720      30.00000      30.00000     121.00000       0.00000  
topohru0172            0.39029      30.00000      30.00000     121.00000       0.00000  
topohru0173            0.56891      30.00000      30.00000     121.00000       0.00000  
topohru0174            0.26000      30.00000      30.00000     121.00000       0.00000  
topohru0175            0.27323      30.00000      30.00000     121.00000       0.00000  
topohru0176            0.35598      30.00000      30.00000     121.00000       0.00000  
topohru0177            0.43028      30.00000      30.00000     121.00000       0.00000  
topohru0178            0.32519      30.00000      30.00000     121.00000       0.00000  
topohru0179            0.36178      30.00000      30.00000     121.00000       0.00000  
topohru0180            0.10121      30.00000      30.00000     121.00000       0.00000  
topohru0181            0.34130      30.00000      30.00000     121.00000       0.00000  
topohru0182            0.14019      30.00000      30.00000     121.00000       0.00000  
topohru0183            0.26290      30.00000      30.00000     121.00000       0.00000  
topohru0184            0.26257      30.00000      30.00000     121.00000       0.00000  
topohru0185            0.32657      30.00000      30.00000     121.00000       0.00000  
topohru0186            0.53391      30.00000      30.00000     121.00000       0.00000  
topohru0187            0.13073      30.00000      30.00000     121.00000       0.00000  
topohru0188            0.08597      30.00000      30.00000     121.00000       0.00000  
topohru0189            0.18734      30.00000      30.00000     121.00000       0.00000  
topohru0190            0.19640      30.00000      30.00000     121.00000       0.00000  
topohru0191            0.12051      30.00000      30.00000     121.00000       0.00000  
topohru0192            0.28416      30.00000      30.00000     121.00000       0.00000  
topohru0193            0.12848      30.00000      30.00000     121.00000       0.00000  
topohru0194            0.21221      30.00000      30.00000     121.00000       0.00000  
topohru0195            0.11988      30.00000      30.00000     121.00000       0.00000  
topohru0196            0.23806      30.00000      30.00000     121.00000       0.00000  
topohru0197            0.14024      30.00000      30.00000     121.00000       0.00000  
topohru0198            0.21108      30.00000      30.00000     121.00000       0.00000  
topohru0199            0.36245      30.00000      30.00000     121.00000       0.00000  
topohru0200            0.59454      30.00000      30.00000     121.00000       0.00000  
topohru0201            0.64533      30.00000      30.00000     121.00000       0.00000  
topohru0202            0.48454      30.00000      30.00000     121.00000       0.00000  
topohru0203            0.65696      30.00000      30.00000     121.00000       0.00000  
topohru0204            0.40327      30.00000      30.00000     121.00000       0.00000  
topohru0205            0.42793      30.00000      30.00000     121.00000       0.00000  
topohru0206            0.50992      30.00000      30.00000     121.00000       0.00000  
topohru0207            0.68067      30.00000      30.00000     121.00000       0.00000  
topohru0208            0.63983      30.00000      30.00000     121.00000       0.00000  
topohru0209            0.52934      30.00000      30.00000     121.00000       0.00000  
topohru0210            0.45273      30.00000      30.00000     121.00000       0.00000  
topohru0211            0.62529      30.00000      30.00000     121.00000       0.00000  
topohru0212            0.43836      30.00000      30.00000     121.00000       0.00000  
topohru0213            0.59383      30.00000      30.00000     121.00000       0.00000  
topohru0214            0.32355      30.00000      30.00000     121.00000       0.00000  
topohru0215            0.53043      30.00000      30.00000     121.00000       0.00000  
topohru0216            0.30322      30.00000      30.00000     121.00000       0.00000  
topohru0217            0.16161      30.00000      30.00000     121.00000       0.00000  
topohru0218            0.20765      30.00000      30.00000     121.00000       0.00000  
topohru0219            0.04563      30.00000      30.00000     121.00000       0.00000  
topohru0220            0.37260      30.00000      30.00000     121.00000       0.00000  
topohru0221            0.21674      30.00000      30.00000     121.00000       0.00000  
topohru0222            0.36925      30.00000      30.00000     121.00000       0.00000  
topohru0223            0.27672      30.00000      30.00000     121.00000       0.00000  
topohru0224            0.11241      30.00000      30.00000     121.00000       0.00000  
topohru0225            0.14118      30.00000      30.00000     121.00000       0.00000  
topohru0226            0.08792      30.00000      30.00000     121.00000       0.00000  
topohru0227            0.16224      30.00000      30.00000     121.00000       0.00000  
topohru0228            0.06760      30.00000      30.00000     121.00000       0.00000  
topohru0229            0.10080      30.00000      30.00000     121.00000       0.00000  
topohru0230            0.20511      30.00000      30.00000     121.00000       0.00000  
topohru0231            0.20561      30.00000      30.00000     121.00000       0.00000  
topohru0232            0.20454      30.00000      30.00000     121.00000       0.00000  
topohru0233            0.09390      30.00000      30.00000     121.00000       0.00000  
topohru0234            0.04965      30.00000      30.00000     121.00000       0.00000  
topohru0235            0.10059      30.00000      30.00000     121.00000       0.00000  
topohru0236            0.10835      30.00000      30.00000     121.00000       0.00000  
topohru0237            0.08073      30.00000      30.00000     121.00000       0.00000  
topohru0238            0.33293      30.00000      30.00000     121.00000       0.00000  
topohru0239            0.22436      30.00000      30.00000     121.00000       0.00000  
topohru0240            0.23163      30.00000      30.00000     121.00000       0.00000  
topohru0241            0.25422      30.00000      30.00000     121.00000       0.00000  
topohru0242            0.25023      30.00000      30.00000     121.00000       0.00000  
topohru0243            0.14086      30.00000      30.00000     121.00000       0.00000  
topohru0244            0.35944      30.00000      30.00000     121.00000       0.00000  
topohru0245            0.25362      30.00000      30.00000     121.00000       0.00000  
topohru0246            0.31807      30.00000      30.00000     121.00000       0.00000  
topohru0247            0.07871      30.00000      30.00000     121.00000       0.00000  
topohru0248            0.26253      30.00000      30.00000     121.00000       0.00000  
topohru0249            0.27112      30.00000      30.00000     121.00000       0.00000  
topohru0250            0.26560      30.00000      30.00000     121.00000       0.00000  
topohru0251            0.27244      30.00000      30.00000     121.00000       0.00000  
topohru0252            0.25665      30.00000      30.00000     121.00000       0.00000  
topohru0253            0.27663      30.00000      30.00000     121.00000       0.00000  
topohru0254            0.18126      30.00000      30.00000     121.00000       0.00000  
topohru0255            0.13806      30.00000      30.00000     121.00000       0.00000  
topohru0256            0.25227      30.00000      30.00000     121.00000       0.00000  
topohru0257            0.08802      30.00000      30.00000     121.00000       0.00000  
topohru0258            0.11522      30.00000      30.00000     121.00000       0.00000  
topohru0259            0.19399      30.00000      30.00000     121.00000       0.00000  
topohru0260            0.32218      30.00000      30.00000     121.00000       0.00000  
topohru0261            0.21664      30.00000      30.00000     121.00000       0.00000  
topohru0262            0.08426      30.00000      30.00000     121.00000       0.00000  
topohru0263            0.11217      30.00000      30.00000     121.00000       0.00000  
topohru0264            0.38660      30.00000      30.00000     121.00000       0.00000  
topohru0265            0.07080      30.00000      30.00000     121.00000       0.00000  
topohru0266            0.30687      30.00000      30.00000     121.00000       0.00000  
topohru0267            0.03041      30.00000      30.00000     121.00000       0.00000  
topohru0268            0.28229      30.00000      30.00000     121.00000       0.00000  
topohru0269            0.02487      30.00000      30.00000     121.00000       0.00000  
topohru0270            0.03359      30.00000      30.00000     121.00000       0.00000  
topohru0271            0.29182      30.00000      30.00000     121.00000       0.00000  
topohru0272            0.22620      30.00000      30.00000     121.00000       0.00000  
topohru0273            0.06837      30.00000      30.00000     121.00000       0.00000  
topohru0274            0.05254      30.00000      30.00000     121.00000       0.00000  
topohru0275            0.06895      30.00000      30.00000     121.00000       0.00000  
topohru0276            0.12253      30.00000      30.00000     121.00000       0.00000  
topohru0277            0.08449      30.00000      30.00000     121.00000       0.00000  
topohru0278            0.17452      30.00000      30.00000     121.00000       0.00000  
topohru0279            0.09005      30.00000      30.00000     121.00000       0.00000  
topohru0280            0.15524      30.00000      30.00000     121.00000       0.00000  
topohru0281            0.02978      30.00000      30.00000     121.00000       0.00000  
topohru0282            0.06923      30.00000      30.00000     121.00000       0.00000  
topohru0283            0.03035      30.00000      30.00000     121.00000       0.00000  
topohru0284            0.22559      30.00000      30.00000     121.00000       0.00000  
topohru0285            0.15865      30.00000      30.00000     121.00000       0.00000  
topohru0286            0.12233      30.00000      30.00000     121.00000       0.00000  
topohru0287            0.32898      30.00000      30.00000     121.00000       0.00000  
topohru0288            0.52926      30.00000      30.00000     121.00000       0.00000  
topohru0289            0.40854      30.00000      30.00000     121.00000       0.00000  
topohru0290            0.29416      30.00000      30.00000     121.00000       0.00000  
topohru0291            0.21342      30.00000      30.00000     121.00000       0.00000  
topohru0292            0.05092      30.00000      30.00000     121.00000       0.00000  
topohru0293            0.22939      30.00000      30.00000     121.00000       0.00000  
topohru0294            0.12161      30.00000      30.00000     121.00000       0.00000  
topohru0295            0.05235      30.00000      30.00000     121.00000       0.00000  
topohru0296            0.11299      30.00000      30.00000     121.00000       0.00000  
topohru0297            0.15261      30.00000      30.00000     121.00000       0.00000  
topohru0298            0.17502      30.00000      30.00000     121.00000       0.00000  
topohru0299            0.41154      30.00000      30.00000     121.00000       0.00000  
topohru0300            0.39802      30.00000      30.00000     121.00000       0.00000  
topohru0301            0.04650      30.00000      30.00000     121.00000       0.00000  
topohru0302            0.34627      30.00000      30.00000     121.00000       0.00000  
topohru0303            0.05196      30.00000      30.00000     121.00000       0.00000  
topohru0304            0.05864      30.00000      30.00000     121.00000       0.00000  
topohru0305            0.18846      30.00000      30.00000     121.00000       0.00000  
topohru0306            0.33704      30.00000      30.00000     121.00000       0.00000  
topohru0307            0.13908      30.00000      30.00000     121.00000       0.00000  
topohru0308            0.08037      30.00000      30.00000     121.00000       0.00000  
topohru0309            0.05012      30.00000      30.00000     121.00000       0.00000  
topohru0310            0.04213      30.00000      30.00000     121.00000       0.00000  
topohru0311            0.31886      30.00000      30.00000     121.00000       0.00000  
topohru0312            0.32975      30.00000      30.00000     121.00000       0.00000  
topohru0313            0.16469      30.00000      30.00000     121.00000       0.00000  
topohru0314            0.10438      30.00000      30.00000     121.00000       0.00000  
topohru0315            0.29590      30.00000      30.00000     121.00000       0.00000  
topohru0316            0.35682      30.00000      30.00000     121.00000       0.00000  
topohru0317            0.33002      30.00000      30.00000     121.00000       0.00000  
topohru0318            0.35296      30.00000      30.00000     121.00000       0.00000  
topohru0319            0.40627      30.00000      30.00000     121.00000       0.00000  
topohru0320            0.24337      30.00000      30.00000     121.00000       0.00000  
topohru0321            0.26529      30.00000      30.00000     121.00000       0.00000  
topohru0322            0.31919      30.00000      30.00000     121.00000       0.00000  
topohru0323            0.02876      30.00000      30.00000     121.00000       0.00000  
topohru0324            0.18474      30.00000      30.00000     121.00000       0.00000  
topohru0325            0.16230      30.00000      30.00000     121.00000       0.00000  
topohru0326            0.21276      30.00000      30.00000     121.00000       0.00000  
topohru0327            0.02145      30.00000      30.00000     121.00000       0.00000  
topohru0328            0.12415      30.00000      30.00000     121.00000       0.00000  
topohru0329            0.02060      30.00000      30.00000     121.00000       0.00000  
topohru0330            0.03921      30.00000      30.00000     121.00000       0.00000  
topohru0331            0.02603      30.00000      30.00000     121.00000       0.00000  
topohru0332            0.06034      30.00000      30.00000     121.00000       0.00000  
topohru0333            0.13295      30.00000      30.00000     121.00000       0.00000  
topohru0334            0.11603      30.00000      30.00000     121.00000       0.00000  
topohru0335            0.03064      30.00000      30.00000     121.00000       0.00000  