aqu_catunit.ele: written by SWAT+ editor v2.1.0 on 2024-10-10 09:03 for SWAT+ rev.2.1.4
      id  name                   obj_typ  obj_typ_no      bsn_frac      sub_frac      reg_frac  
       1  aqu1                       aqu           1       1.00334       0.00000       0.00000  
