chandeg.con: written by SWAT+ editor v2.1.0 on 2024-10-10 09:02 for SWAT+ rev.2.1.4
      id  name                gis_id          area           lat           lon          elev      lcha               wst       cst      ovfl      rule   out_tot       obj_typ    obj_id       hyd_typ          frac  
       1  cha001                   0      46.09760      52.55753      18.72968      89.67430         1      s52564n1873e         0         0         0         1           res        25           tot       1.00000  
       2  cha002                   0      46.79510      52.56012      18.72265      89.67321         2      s52564n1873e         0         0         0         1           sdc       142           tot       1.00000  
       3  cha003                   0      12.83390      52.62236      18.60788      92.16590         3     s52626n18623e         0         0         0         1           sdc       127           tot       1.00000  
       4  cha004                   0       6.34610      52.66464      18.61294      90.64508         4     s52663n18601e         0         0         0         1           sdc       117           tot       1.00000  
       5  cha005                   0      87.36330      52.59871      18.65000      87.33569         5     s52606n18649e         0         0         0         1           sdc        29           tot       1.00000  
       6  cha006                   0      14.32515      52.61264      18.65743      89.83512         6     s52606n18649e         0         0         0         1           sdc        81           tot       1.00000  
       7  cha007                   0      17.51000      52.64830      18.62652      90.45012         7     s52643n18626e         0         0         0         1           sdc        39           tot       1.00000  
       8  cha008                   0      22.86500      52.63029      18.60817      91.50631         8     s52628n18594e         0         0         0         1           sdc        40           tot       1.00000  
       9  cha009                   0       4.72308      52.57339      18.62926      91.82516         9      s5257n18642e         0         0         0         1           sdc       133           tot       1.00000  
      10  cha010                   0      30.19672      52.60470      18.62987      89.74510        10     s52608n18619e         0         0         0         1           sdc         5           tot       1.00000  
      11  cha011                   0       2.60700      52.64092      18.71312      90.44178        11     s52637n18715e         0         0         0         1           sdc        37           tot       1.00000  
      12  cha012                   0       3.01394      52.57801      18.71433      91.39156        12     s52584n18704e         0         0         0         1           sdc       140           tot       1.00000  
      13  cha013                   0       6.35860      52.66074      18.67375      88.67505        13     s52657n18689e         0         0         0         1           sdc        22           tot       1.00000  
      14  cha014                   0       2.55598      52.56191      18.68394      86.15554        14     s52568n18671e         0         0         0         1           sdc       137           tot       1.00000  
      15  cha015                   0       2.94560      52.62989      18.73830      93.74504        15     s52635n18744e         0         0         0         1           sdc       151           tot       1.00000  
      16  cha016                   0      29.81970      52.60624      18.71844      90.30003        16     s52601n18707e         0         0         0         1           sdc        18           tot       1.00000  
      17  cha017                   0      13.04580      52.60595      18.56589      96.84588        17     s52612n18561e         0         0         0         1           sdc        50           tot       1.00000  
      18  cha018                   0      53.31930      52.61051      18.71039      89.20503        18     s52619n18711e         0         0         0         1           sdc        73           tot       1.00000  
      19  cha019                   0       9.84860      52.65502      18.69159      89.86203        19     s52657n18689e         0         0         0         1           sdc        22           tot       1.00000  
      20  cha020                   0       0.56410      52.63267      18.59147      93.23504        20     s52628n18594e         0         0         0         1           sdc       159           tot       1.00000  
      21  cha021                   0       1.46360      52.63791      18.74491      94.76088        21     s52635n18744e         0         0         0         1           sdc       152           tot       1.00000  
      22  cha022                   0       6.41210      52.65018      18.67684      88.73410        22     s52657n18689e         0         0         0         1           sdc       128           tot       1.00000  
      23  cha023                   0      12.93836      52.62239      18.69432      89.29088        23     s52621n18682e         0         0         0         1           sdc        36           tot       1.00000  
      24  cha024                   0       9.49250      52.62292      18.72684      91.64002        24      s52617n1874e         0         0         0         1           sdc       150           tot       1.00000  
      25  cha025                   0      16.58860      52.59197      18.71521      92.09015        25     s52601n18707e         0         0         0         1           sdc       148           tot       1.00000  
      26  cha026                   0      91.99650      52.56309      18.69186      86.73003        26       s52566n187e         0         0         0         1           res        27           tot       1.00000  
      27  cha027                   0      94.29090      52.55649      18.68670      85.41021        27       s52566n187e         0         0         0         1           sdc       138           tot       1.00000  
      28  cha028                   0      37.96230      52.59799      18.60592      91.26129        28      s5259n18616e         0         0         0         1           sdc       132           tot       1.00000  
      29  cha029                   0     122.61540      52.59196      18.67415      84.74590        29     s52586n18675e         0         0         0         1           sdc        30           tot       1.00000  
      30  cha030                   0     406.08880      52.58612      18.67684      83.30142        30     s52586n18675e         0         0         0         1           sdc       146           tot       1.00000  
      31  cha031                   0     457.61420      52.56258      18.65118      80.79731        31      s5257n18642e         0         0         0         1           res        23           tot       1.00000  
      32  cha032                   0     458.51140      52.55815      18.65479      80.38052        32     s52568n18671e         0         0         0         1           sdc       134           tot       1.00000  
      33  cha033                   0      18.83130      52.54403      18.74439      91.00018        33     s52544n18755e         0         0         0         1           sdc        65           tot       1.00000  
      34  cha034                   0     270.64350      52.59952      18.69329      84.87005        34     s52601n18707e         0         0         0         1           sdc       147           tot       1.00000  
      35  cha035                   0     201.57180      52.61670      18.70545      88.66071        35     s52619n18711e         0         0         0         1           sdc        52           tot       1.00000  
      36  cha036                   0     197.54240      52.62122      18.70702      88.66156        36     s52619n18711e         0         0         0         1           sdc        35           tot       1.00000  
      37  cha037                   0     178.51890      52.62679      18.70612      88.74587        37     s52619n18711e         0         0         0         1           sdc        36           tot       1.00000  
      38  cha038                   0     141.19000      52.63786      18.68811      88.66573        38     s52639n18685e         0         0         0         1           sdc       154           tot       1.00000  
      39  cha039                   0      68.01650      52.64372      18.63465      89.35705        39     s52643n18626e         0         0         0         1           sdc       110           tot       1.00000  
      40  cha040                   0      36.40190      52.63217      18.62086      90.93545        40     s52626n18623e         0         0         0         1           sdc       157           tot       1.00000  
      41  cha041                   0       3.42830      52.62412      18.58112      94.40504        41     s52628n18594e         0         0         0         1           sdc       105           tot       1.00000  
      42  cha042                   0     119.18220      52.64456      18.67391      88.66844        42     s52639n18685e         0         0         0         1           sdc       128           tot       1.00000  
      43  cha043                   0     462.29686      52.55232      18.66175      80.15501        43     s52568n18671e         0         0         0         0  
      44  cha044                   0       0.27780      52.60057      18.57872      96.35004        44     s52592n18587e         0         0         0         1           sdc        46           tot       1.00000  
      45  cha045                   0     106.43690      52.55434      18.68158      85.24053        45     s52568n18671e         0         0         0         1           sdc       136           tot       1.00000  
      46  cha046                   0      18.35440      52.60436      18.58435      94.17029        46       s5261n1859e         0         0         0         1           sdc        47           tot       1.00000  
      47  cha047                   0      19.13700      52.60244      18.59080      92.67633        47       s5261n1859e         0         0         0         1           sdc        48           tot       1.00000  
      48  cha048                   0      20.14670      52.59952      18.59788      91.31082        48     s52592n18587e         0         0         0         1           sdc        28           tot       1.00000  
      49  cha049                   0       1.69660      52.61149      18.59393      95.30501        49       s5261n1859e         0         0         0         1           sdc       130           tot       1.00000  
      50  cha050                   0      14.25511      52.60540      18.57734      94.25108        50       s5261n1859e         0         0         0         1           sdc        46           tot       1.00000  
      51  cha051                   0       9.49060      52.61149      18.56448      95.38611        51     s52612n18561e         0         0         0         1           sdc       129           tot       1.00000  
      52  cha052                   0     257.70274      52.60898      18.70160      85.55000        52     s52601n18707e         0         0         0         1           sdc        34           tot       1.00000  
      53  cha053                   0     434.69486      52.57217      18.65120      82.07508        53      s5257n18642e         0         0         0         1           sdc       135           tot       1.00000  
      54  cha054                   0     109.45960      52.55414      18.66637      81.39179        54     s52568n18671e         0         0         0         1           sdc        43           tot       1.00000  
      55  cha055                   0       6.77284      52.58683      18.63397      89.89029        55     s52588n18645e         0         0         0         1           sdc        57           tot       1.00000  
      56  cha056                   0       7.50810      52.58539      18.63888      89.45020        56     s52588n18645e         0         0         0         1           sdc       131           tot       1.00000  
      57  cha057                   0       7.31950      52.58729      18.63592      89.87523        57     s52588n18645e         0         0         0         1           sdc        56           tot       1.00000  
      58  cha058                   0      12.52970      52.58350      18.64852      88.08500        58     s52588n18645e         0         0         0         1           sdc        59           tot       1.00000  
      59  cha059                   0      13.85875      52.58277      18.65485      87.00010        59     s52588n18645e         0         0         0         1           sdc        60           tot       1.00000  
      60  cha060                   0      14.53990      52.58003      18.65776      84.54531        60     s52588n18645e         0         0         0         1           sdc       126           tot       1.00000  
      61  cha061                   0       0.44500      52.58721      18.65078      89.44500        61     s52588n18645e         0         0         0         1           sdc        59           tot       1.00000  
      62  cha062                   0       0.41770      52.56518      18.64616      84.06500        62      s5257n18642e         0         0         0         1           sdc        63           tot       1.00000  
      63  cha063                   0       0.00804      52.56523      18.65097      81.23500        63      s5257n18642e         0         0         0         1           sdc        31           tot       1.00000  
      64  cha064                   0       3.81870      52.54824      18.72285      93.03029        64     s52546n18726e         0         0         0         1           sdc       143           tot       1.00000  
      65  cha065                   0      31.65760      52.55216      18.73595      90.43762        65     s52546n18726e         0         0         0         1           sdc         1           tot       1.00000  
      66  cha066                   0       2.19450      52.54770      18.76167      93.81509        66     s52544n18755e         0         0         0         1           sdc       144           tot       1.00000  
      67  cha067                   0       5.23800      52.57746      18.68492      87.48005        67     s52586n18675e         0         0         0         1           sdc       139           tot       1.00000  
      68  cha068                   0      18.65290      52.57240      18.69459      87.42200        68       s52566n187e         0         0         0         1           res         4           tot       1.00000  
      69  cha069                   0       7.34790      52.57727      18.69209      87.94111        69     s52584n18704e         0         0         0         1           sdc        68           tot       1.00000  
      70  cha070                   0       7.74510      52.59920      18.73145      91.87029        70     s52599n18737e         0         0         0         1           sdc        72           tot       1.00000  
      71  cha071                   0      12.31030      52.60827      18.72672      91.82530        71     s52599n18737e         0         0         0         1           sdc        16           tot       1.00000  
      72  cha072                   0      15.16580      52.60542      18.72525      90.90031        72     s52599n18737e         0         0         0         1           sdc        16           tot       1.00000  
      73  cha073                   0     256.37430      52.61293      18.70572      88.29501        73     s52619n18711e         0         0         0         1           sdc        52           tot       1.00000  
      74  cha074                   0      10.70330      52.60949      18.74041      94.32525        74      s52617n1874e         0         0         0         1           sdc        71           tot       1.00000  
      75  cha075                   0       0.79290      52.61139      18.72229      92.72006        75     s52619n18711e         0         0         0         1           sdc        71           tot       1.00000  
      76  cha076                   0       0.07270      52.61273      18.70939      90.35501        76     s52619n18711e         0         0         0         1           sdc        52           tot       1.00000  
      77  cha077                   0       0.35570      52.61415      18.69567      90.00511        77     s52619n18711e         0         0         0         1           sdc        52           tot       1.00000  
      78  cha078                   0       0.23710      52.61561      18.68100      90.00526        78     s52621n18682e         0         0         0         1           sdc        80           tot       1.00000  
      79  cha079                   0       0.14850      52.61634      18.67499      90.37504        79     s52621n18682e         0         0         0         1           sdc        80           tot       1.00000  
      80  cha080                   0       1.22960      52.61214      18.67312      89.65002        80     s52604n18678e         0         0         0         1           sdc        84           tot       1.00000  
      81  cha081                   0      93.43420      52.60216      18.67023      87.45058        81     s52604n18678e         0         0         0         1           sdc        29           tot       1.00000  
      82  cha082                   0       0.67780      52.61256      18.66864      89.47521        82     s52604n18678e         0         0         0         1           sdc        83           tot       1.00000  
      83  cha083                   0       2.82590      52.61045      18.66817      89.09503        83     s52604n18678e         0         0         0         1           sdc        84           tot       1.00000  
      84  cha084                   0       0.86352      52.60856      18.66817      88.61049        84     s52604n18678e         0         0         0         1           sdc        81           tot       1.00000  
      85  cha085                   0       4.56870      52.62028      18.64537      90.02001        85     s52624n18652e         0         0         0         1           sdc         6           tot       1.00000  
      86  cha086                   0       3.78030      52.62466      18.63266      90.98542        86     s52626n18623e         0         0         0         1           sdc       158           tot       1.00000  
      87  cha087                   0      23.82520      52.61225      18.63284      92.06000        87     s52608n18619e         0         0         0         1           sdc        10           tot       1.00000  
      88  cha088                   0      19.75810      52.61358      18.61927      90.62598        88     s52608n18619e         0         0         0         1           sdc        89           tot       1.00000  
      89  cha089                   0      23.76310      52.61114      18.62509      90.70031        89     s52608n18619e         0         0         0         1           sdc        10           tot       1.00000  
      90  cha090                   0      23.28320      52.61533      18.62264      90.96573        90     s52608n18619e         0         0         0         1           sdc        89           tot       1.00000  
      91  cha091                   0       0.44410      52.61193      18.61512      91.79000        91     s52608n18619e         0         0         0         1           sdc        92           tot       1.00000  
      92  cha092                   0      18.91873      52.61514      18.61499      91.06532        92     s52608n18619e         0         0         0         1           sdc        88           tot       1.00000  
      93  cha093                   0       0.79810      52.61509      18.61331      91.15069        93     s52608n18619e         0         0         0         1           sdc        92           tot       1.00000  
      94  cha094                   0      17.31530      52.61683      18.61246      90.88557        94     s52608n18619e         0         0         0         1           sdc        93           tot       1.00000  
      95  cha095                   0       1.65710      52.61827      18.66004      91.07504        95     s52624n18652e         0         0         0         1           sdc         6           tot       1.00000  
      96  cha096                   0       4.63460      52.62043      18.64177      91.24518        96     s52624n18652e         0         0         0         1           sdc         6           tot       1.00000  
      97  cha097                   0       0.11800      52.62143      18.63184      92.89005        97     s52626n18623e         0         0         0         1           sdc        86           tot       1.00000  
      98  cha098                   0       0.88270      52.61956      18.63067      92.67506        98     s52626n18623e         0         0         0         1           sdc        86           tot       1.00000  
      99  cha099                   0       1.66690      52.62825      18.66123      90.71505        99     s52624n18652e         0         0         0         1           sdc       121           tot       1.00000  
     100  cha100                   0      19.86660      52.65458      18.66834      88.74024       100     s52657n18689e         0         0         0         1           sdc       125           tot       1.00000  
     101  cha101                   0     119.17560      52.64619      18.66900      88.66949       101     s52641n18656e         0         0         0         1           sdc        42           tot       1.00000  
     102  cha102                   0       0.34390      52.63803      18.64303      89.77697       102     s52641n18656e         0         0         0         1           sdc       110           tot       1.00000  
     103  cha103                   0     118.75950      52.64328      18.66471      88.66964       103     s52641n18656e         0         0         0         1           sdc        42           tot       1.00000  
     104  cha104                   0       0.42650      52.64361      18.56410      95.05006       104      s5263n18564e         0         0         0         1           sdc       163           tot       1.00000  
     105  cha105                   0       0.13950      52.62556      18.58707      93.52008       105     s52628n18594e         0         0         0         1           sdc       160           tot       1.00000  
     106  cha106                   0       0.35930      52.62368      18.61282      91.68183       106     s52626n18623e         0         0         0         1           sdc       127           tot       1.00000  
     107  cha107                   0       0.36050      52.62798      18.56962      95.27034       107      s5263n18564e         0         0         0         1           sdc       108           tot       1.00000  
     108  cha108                   0       7.26100      52.62692      18.58113      94.40505       108     s52628n18594e         0         0         0         1           sdc       105           tot       1.00000  
     109  cha109                   0       0.25650      52.64622      18.65685      89.00042       109     s52641n18656e         0         0         0         1           sdc       103           tot       1.00000  
     110  cha110                   0      70.06230      52.64470      18.65183      89.04183       110     s52641n18656e         0         0         0         1           sdc       103           tot       1.00000  
     111  cha111                   0      12.02270      52.63815      18.65548      89.60256       111     s52641n18656e         0         0         0         1           sdc       103           tot       1.00000  
     112  cha112                   0      18.49070      52.66210      18.64610      88.57530       112      s52661n1863e         0         0         0         1           sdc       113           tot       1.00000  
     113  cha113                   0       0.39016      52.65904      18.64326      88.85085       113      s52661n1863e         0         0         0         1           sdc       155           tot       1.00000  
     114  cha114                   0       2.85545      52.66688      18.62537      89.93510       114      s52661n1863e         0         0         0         1           sdc       117           tot       1.00000  
     115  cha115                   0      17.80150      52.66126      18.64033      88.56212       115      s52661n1863e         0         0         0         1           sdc       113           tot       1.00000  
     116  cha116                   0      15.00300      52.66636      18.63642      89.01629       116      s52661n1863e         0         0         0         1           sdc       115           tot       1.00000  
     117  cha117                   0      14.18098      52.66197      18.63288      89.07500       117      s52661n1863e         0         0         0         1           sdc       115           tot       1.00000  
     118  cha118                   0      19.67290      52.66133      18.65260      89.07530       118      s52661n1863e         0         0         0         1           sdc       112           tot       1.00000  
     119  cha119                   0      21.26970      52.66433      18.65084      88.63501       119      s52661n1863e         0         0         0         1           sdc       112           tot       1.00000  
     120  cha120                   0       1.24750      52.63089      18.67131      90.50008       120     s52639n18685e         0         0         0         1           sdc       121           tot       1.00000  
     121  cha121                   0       9.30310      52.63707      18.67189      89.00365       121     s52639n18685e         0         0         0         1           sdc       123           tot       1.00000  
     122  cha122                   0       0.53000      52.63462      18.67851      89.64359       122     s52639n18685e         0         0         0         1           sdc       123           tot       1.00000  
     123  cha123                   0      10.06720      52.64118      18.68187      88.66678       123     s52639n18685e         0         0         0         1           sdc        38           tot       1.00000  
     124  cha124                   0      21.92980      52.65268      18.66384      89.04030       124     s52641n18656e         0         0         0         1           sdc       125           tot       1.00000  
     125  cha125                   0      22.25400      52.64944      18.66806      88.67014       125     s52641n18656e         0         0         0         1           sdc       101           tot       1.00000  
     126  cha126                   0     430.12869      52.57727      18.65649      82.74000       126      s5257n18642e         0         0         0         1           sdc        53           tot       1.00000  
     127  cha127                   0       0.23780      52.62528      18.61962      90.64153       127     s52626n18623e         0         0         0         1           sdc        40           tot       1.00000  
     128  cha128                   0     122.30739      52.64353      18.67992      88.66757       128     s52639n18685e         0         0         0         1           sdc        38           tot       1.00000  
     129  cha129                   0      12.99100      52.60717      18.57376      94.25172       129     s52612n18561e         0         0         0         1           sdc        50           tot       1.00000  
     130  cha130                   0       6.48630      52.60407      18.59961      92.91578       130       s5261n1859e         0         0         0         1           sdc        28           tot       1.00000  
     131  cha131                   0      10.32665      52.58433      18.64347      88.74045       131     s52588n18645e         0         0         0         1           sdc        58           tot       1.00000  
     132  cha132                   0      43.71494      52.59593      18.62100      90.04010       132      s5259n18616e         0         0         0         1           sdc         5           tot       1.00000  
     133  cha133                   0       8.51510      52.56650      18.63985      88.66010       133      s5257n18642e         0         0         0         1           sdc        62           tot       1.00000  
     134  cha134                   0     460.46800      52.55563      18.65901      80.29801       134     s52568n18671e         0         0         0         1           sdc        43           tot       1.00000  
     135  cha135                   0     440.15810      52.56640      18.65100      81.33003       135      s5257n18642e         0         0         0         1           sdc        31           tot       1.00000  
     136  cha136                   0     108.11030      52.55412      18.67524      83.99500       136     s52568n18671e         0         0         0         1           sdc        54           tot       1.00000  
     137  cha137                   0       9.39300      52.55621      18.68370      85.43539       137       s52566n187e         0         0         0         1           sdc        45           tot       1.00000  
     138  cha138                   0      96.44780      52.55562      18.68463      85.59541       138       s52566n187e         0         0         0         1           sdc        45           tot       1.00000  