codes.bsn: written by SWAT+ editor v2.1.0 on 2023-02-01 16:50 for SWAT+ rev.60.5.4
        pet_file           wq_file       pet     event     crack    rtu_wq   sed_det   rte_cha   deg_cha    wq_cha  nostress        cn    c_fact    carbon     lapse      uhyd   sed_cha  tiledrain    wtable    soil_p     gampt          atmo_dep  stor_max   i_fpwet  
            null              null         1         0         0         1         0         1         0         1         0         2         0         0         0         1         0         1         0         0         0                 a         0         0  
