exco.exc: file was written by SWATprepR R package 2024-10-10 09:21:53.600656
name                                 om            pest            path            hmet            salt
id1                                 id1            null            null            null            null
id2                                 id2            null            null            null            null
