exco_om.exc: file was written by SWATprepR R package 2024-10-10 09:21:53.600656
name                         flo            sed           orgn           sedp            no3           solp           chla            nh3            no2           cbod            dox           sand           silt           clay            sag            lag         gravel            tmp
id1                      250.109      0.0032925        1.08495        0.41415        3.21015        0.21625              0         7.0396        0.14535         3.4125              0              0              0              0              0              0              0              0
id2                      54.0695      0.0016869        0.20985        0.05055         0.7895         0.0182              0        0.34045         0.0102          3.152              0              0              0              0              0              0              0              0
