hru.con: written by SWAT+ editor v2.1.0 on 2024-10-10 09:02 for SWAT+ rev.2.1.4
      id  name                gis_id          area           lat           lon          elev       hru               wst       cst      ovfl      rule   out_tot  
       1  hru00001                 0       2.95540      52.65618      18.69867      91.55418         1     s52657n18689e         0         0         0         0  
       2  hru00002                 0       0.03521      52.60876      18.74730      94.87765         2      s52617n1874e         0         0         0         0  
       3  hru00003                 0       0.08507      52.65838      18.66100      89.28824         3     s52657n18689e         0         0         0         0  
       4  hru00004                 0       0.08813      52.65880      18.64199      88.76829         4      s52661n1863e         0         0         0         0  
       5  hru00005                 0       0.05874      52.65828      18.64434      88.35360         5      s52661n1863e         0         0         0         0  
       6  hru00006                 0       0.04278      52.65707      18.66291      89.22176         6     s52657n18689e         0         0         0         0  
       7  hru00007                 0       0.04911      52.65859      18.66126      89.62350         7     s52657n18689e         0         0         0         0  
       8  hru00008                 0       0.01764      52.62866      18.68743      90.37333         8     s52621n18682e         0         0         0         0  
       9  hru00009                 0       0.08522      52.60518      18.73315      93.50500         9     s52599n18737e         0         0         0         0  
      10  hru00010                 0       0.24613      52.60533      18.73173      93.60265        10     s52599n18737e         0         0         0         0  
      11  hru00011                 0       0.09355      52.60527      18.73246      93.39026        11     s52599n18737e         0         0         0         0  
      12  hru00012                 0       0.75519      52.55598      18.74165      92.55213        12      s52564n1873e         0         0         0         0  
      13  hru00013                 0       0.61160      52.55607      18.74246      92.89938        13      s52564n1873e         0         0         0         0  
      14  hru00014                 0       0.78266      52.55600      18.74346      92.93571        14     s52561n18759e         0         0         0         0  
      15  hru00015                 0       7.42142      52.56314      18.68822      92.29983        15       s52566n187e         0         0         0         0  
      16  hru00016                 0       0.02033      52.57491      18.64692      90.53572        16      s5257n18642e         0         0         0         0  
      17  hru00017                 0       0.29817      52.57764      18.64566      88.82138        17      s5257n18642e         0         0         0         0  
      18  hru00018                 0       0.04840      52.64307      18.69684      90.00421        18     s52639n18685e         0         0         0         0  
      19  hru00019                 0       3.61198      52.54049      18.72621      95.41616        19     s52546n18726e         0         0         0         0  
      20  hru00020                 0       0.06694      52.64649      18.66748      88.62385        20     s52641n18656e         0         0         0         0  
      21  hru00021                 0       5.65555      52.58200      18.66588      86.99238        21     s52586n18675e         0         0         0         0  
      22  hru00022                 0       0.02097      52.64807      18.68328      89.65400        22     s52639n18685e         0         0         0         0  
      23  hru00023                 0       0.24234      52.64836      18.68289      89.43170        23     s52657n18689e         0         0         0         0  
      24  hru00024                 0       2.86354      52.54048      18.72118      96.39481        24     s52546n18726e         0         0         0         0  
      25  hru00025                 0       1.06931      52.65451      18.71985      93.24692        25     s52655n18718e         0         0         0         0  
      26  hru00026                 0       0.05474      52.65379      18.72163      92.32182        26     s52655n18718e         0         0         0         0  
      27  hru00027                 0       0.14044      52.65424      18.71766      93.01298        27     s52655n18718e         0         0         0         0  
      28  hru00028                 0       0.05509      52.65457      18.71895      93.63143        28     s52655n18718e         0         0         0         0  
      29  hru00029                 0       0.24721      52.65391      18.72012      93.65680        29     s52655n18718e         0         0         0         0  
      30  hru00030                 0       0.02230      52.65357      18.72158      93.01555        30     s52655n18718e         0         0         0         0  
      31  hru00031                 0       0.56301      52.62157      18.75610      95.33704        31      s52617n1874e         0         0         0         0  
      32  hru00032                 0       1.74242      52.55234      18.72277      92.01799        32     s52546n18726e         0         0         0         0  
      33  hru00033                 0       0.03796      52.59401      18.65969      88.66647        33     s52588n18645e         0         0         0         0  
      34  hru00034                 0       0.09297      52.59472      18.65877      88.78528        34     s52588n18645e         0         0         0         0  
      35  hru00035                 0       1.06629      52.54210      18.76347      94.26559        35     s52544n18755e         0         0         0         0  
      36  hru00036                 0       0.74612      52.58824      18.70779      92.06397        36     s52584n18704e         0         0         0         0  
      37  hru00037                 0       0.68427      52.58140      18.70393      92.38070        37     s52584n18704e         0         0         0         0  
      38  hru00038                 0       0.41897      52.53725      18.73720      95.42898        38     s52546n18726e         0         0         0         0  
      39  hru00039                 0       0.05086      52.53938      18.73968      95.36227        39     s52544n18755e         0         0         0         0  
      40  hru00040                 0       0.33768      52.54010      18.74012      96.14878        40     s52544n18755e         0         0         0         0  
      41  hru00041                 0       0.16843      52.53727      18.73764      95.17971        41     s52546n18726e         0         0         0         0  
      42  hru00042                 0       0.20314      52.53922      18.73925      95.71284        42     s52546n18726e         0         0         0         0  
      43  hru00043                 0       0.40158      52.55892      18.68666      88.64252        43       s52566n187e         0         0         0         0  
      44  hru00044                 0       3.41729      52.55795      18.68599      87.95413        44       s52566n187e         0         0         0         0  
      45  hru00045                 0       1.43855      52.55673      18.68535      87.35775        45       s52566n187e         0         0         0         0  
      46  hru00046                 0       0.03733      52.58919      18.58721      96.03400        46     s52592n18587e         0         0         0         0  
      47  hru00047                 0       0.10088      52.56531      18.66286      94.74026        47     s52568n18671e         0         0         0         0  
      48  hru00048                 0       0.04300      52.56503      18.65987      92.70722        48     s52568n18671e         0         0         0         0  
      49  hru00049                 0       0.07743      52.56573      18.65343      82.27067        49      s5257n18642e         0         0         0         0  
      50  hru00050                 0       0.34535      52.56542      18.65456      85.52162        50      s5257n18642e         0         0         0         0  
      51  hru00051                 0       0.50354      52.56439      18.65805      88.11756        51     s52568n18671e         0         0         0         0  
      52  hru00052                 0       0.90996      52.56432      18.65489      85.31884        52      s5257n18642e         0         0         0         0  
      53  hru00053                 0       0.71511      52.56455      18.65237      83.31291        53      s5257n18642e         0         0         0         0  
      54  hru00054                 0       0.07841      52.56519      18.65211      81.53906        54      s5257n18642e         0         0         0         0  
      55  hru00055                 0       0.01558      52.56492      18.66287      94.39167        55     s52568n18671e         0         0         0         0  
      56  hru00056                 0       0.23175      52.56461      18.66011      92.52255        56     s52568n18671e         0         0         0         0  
      57  hru00057                 0       0.26883      52.56542      18.65563      87.28706        57      s5257n18642e         0         0         0         0  
      58  hru00058                 0       0.24686      52.56557      18.65942      90.80184        58     s52568n18671e         0         0         0         0  
      59  hru00059                 0       0.06974      52.56568      18.66281      94.76741        59     s52568n18671e         0         0         0         0  
      60  hru00060                 0       0.18532      52.56511      18.65946      90.86838        60     s52568n18671e         0         0         0         0  
      61  hru00061                 0       0.30450      52.59956      18.70995      91.40117        61     s52601n18707e         0         0         0         0  
      62  hru00062                 0       0.09149      52.59890      18.70948      91.30111        62     s52601n18707e         0         0         0         0  
      63  hru00063                 0       0.18614      52.59917      18.70958      91.38803        63     s52601n18707e         0         0         0         0  
      64  hru00064                 0       1.73304      52.57571      18.73347     101.01496        64     s52581n18733e         0         0         0         0  
      65  hru00065                 0       0.69991      52.57371      18.73329     101.64793        65     s52581n18733e         0         0         0         0  
      66  hru00066                 0       0.87532      52.57613      18.73416     100.36096        66     s52581n18733e         0         0         0         0  
      67  hru00067                 0       0.41310      52.57779      18.73449      97.14982        67     s52581n18733e         0         0         0         0  
      68  hru00068                 0       0.54720      52.57899      18.73489      98.96083        68     s52581n18733e         0         0         0         0  
      69  hru00069                 0       0.59454      52.57931      18.73401      99.13372        69     s52581n18733e         0         0         0         0  
      70  hru00070                 0       0.25393      52.57391      18.73276     101.58042        70     s52581n18733e         0         0         0         0  
      71  hru00071                 0       0.25171      52.58745      18.65049      90.31060        71     s52588n18645e         0         0         0         0  
      72  hru00072                 0       0.30320      52.58861      18.64929      90.28795        72     s52588n18645e         0         0         0         0  
      73  hru00073                 0       0.12567      52.65756      18.67488      89.06765        73     s52657n18689e         0         0         0         0  
      74  hru00074                 0       0.03576      52.63951      18.71104      91.32538        74     s52637n18715e         0         0         0         0  
      75  hru00075                 0       0.32692      52.64126      18.71242      92.04550        75     s52637n18715e         0         0         0         0  
      76  hru00076                 0       0.59952      52.55472      18.71155      94.03212        76     s52546n18726e         0         0         0         0  
      77  hru00077                 0       0.83535      52.55376      18.70951      94.09662        77     s52546n18726e         0         0         0         0  
      78  hru00078                 0       0.05097      52.55624      18.71362      94.17950        78      s52564n1873e         0         0         0         0  
      79  hru00079                 0       0.14820      52.55592      18.71115      94.10617        79       s52566n187e         0         0         0         0  
      80  hru00080                 0       3.07014      52.55310      18.70975      94.32077        80     s52546n18726e         0         0         0         0  
      81  hru00081                 0       0.98179      52.57571      18.67787      94.22170        81     s52568n18671e         0         0         0         0  
      82  hru00082                 0       0.98036      52.57558      18.67701      96.64288        82     s52568n18671e         0         0         0         0  
      83  hru00083                 0       1.81463      52.57708      18.67640      94.22919        83     s52586n18675e         0         0         0         0  
      84  hru00084                 0       0.48362      52.57593      18.67849      92.65959        84     s52568n18671e         0         0         0         0  
      85  hru00085                 0       1.27574      52.57721      18.67497      94.70709        85     s52586n18675e         0         0         0         0  
      86  hru00086                 0       1.21617      52.54569      18.72364      94.61522        86     s52546n18726e         0         0         0         0  
      87  hru00087                 0       0.33140      52.57061      18.73367      97.01086        87      s52564n1873e         0         0         0         0  
      88  hru00088                 0       0.04900      52.56553      18.62294      93.34857        88      s5257n18642e         0         0         0         0  
      89  hru00089                 0       0.06681      52.56596      18.62399      93.48571        89      s5257n18642e         0         0         0         0  
      90  hru00090                 0       0.02446      52.56399      18.62395      93.79222        90      s5257n18642e         0         0         0         0  
      91  hru00091                 0       0.12548      52.56395      18.62364      93.79960        91      s5257n18642e         0         0         0         0  
      92  hru00092                 0       0.04823      52.56574      18.62344      93.50211        92      s5257n18642e         0         0         0         0  
      93  hru00093                 0       0.02146      52.56216      18.62268      94.87800        93      s5257n18642e         0         0         0         0  
      94  hru00094                 0       1.67121      52.65385      18.70643      91.61175        94     s52655n18718e         0         0         0         0  
      95  hru00095                 0       0.22600      52.65219      18.70735      91.96034        95     s52655n18718e         0         0         0         0  
      96  hru00096                 0       0.37005      52.60045      18.71069      91.06575        96     s52601n18707e         0         0         0         0  
      97  hru00097                 0       0.04711      52.60119      18.69189      86.03737        97     s52604n18678e         0         0         0         0  
      98  hru00098                 0       4.85789      52.54384      18.76839      95.88084        98     s52544n18755e         0         0         0         0  
      99  hru00099                 0       0.03738      52.57007      18.64500      89.01706        99      s5257n18642e         0         0         0         0  
     100  hru00100                 0       0.87451      52.56479      18.64367      86.28037       100      s5257n18642e         0         0         0         0  
     101  hru00101                 0       0.64570      52.56467      18.64901      83.65423       101      s5257n18642e         0         0         0         0  
     102  hru00102                 0       0.63318      52.56545      18.65110      81.36130       102      s5257n18642e         0         0         0         0  
     103  hru00103                 0       0.08460      52.56995      18.64193      92.08057       103      s5257n18642e         0         0         0         0  
     104  hru00104                 0       1.04730      52.56467      18.65096      81.14371       104      s5257n18642e         0         0         0         0  
     105  hru00105                 0       0.38471      52.56304      18.76811      99.98660       105     s52561n18759e         0         0         0         0  
     106  hru00106                 0       0.12553      52.56091      18.75778      97.81314       106     s52561n18759e         0         0         0         0  
     107  hru00107                 0       0.03042      52.56134      18.75946      98.36000       107     s52561n18759e         0         0         0         0  
     108  hru00108                 0       0.15154      52.56055      18.75887      98.10375       108     s52561n18759e         0         0         0         0  
     109  hru00109                 0       0.17403      52.56361      18.76722      99.96313       109     s52561n18759e         0         0         0         0  
     110  hru00110                 0       0.06612      52.65844      18.64167      89.24630       110      s52661n1863e         0         0         0         0  
     111  hru00111                 0       0.14483      52.56692      18.70759      96.58696       111       s52566n187e         0         0         0         0  
     112  hru00112                 0       0.30245      52.56820      18.70679      95.09190       112       s52566n187e         0         0         0         0  
     113  hru00113                 0       1.06627      52.56751      18.70713      96.08969       113       s52566n187e         0         0         0         0  
     114  hru00114                 0       0.48849      52.54753      18.72411      93.64918       114     s52546n18726e         0         0         0         0  
     115  hru00115                 0       0.53648      52.54612      18.72386      94.37321       115     s52546n18726e         0         0         0         0  
     116  hru00116                 0       0.50029      52.54656      18.72205      93.29303       116     s52546n18726e         0         0         0         0  
     117  hru00117                 0       0.05058      52.58472      18.69282      90.63684       117     s52584n18704e         0         0         0         0  
     118  hru00118                 0       0.08563      52.58519      18.68661      86.42778       118     s52586n18675e         0         0         0         0  
     119  hru00119                 0       0.03499      52.58527      18.68339      86.90000       119     s52586n18675e         0         0         0         0  
     120  hru00120                 0       0.15066      52.58474      18.68668      86.78267       120     s52586n18675e         0         0         0         0  
     121  hru00121                 0       3.52453      52.58512      18.68941      88.48747       121     s52586n18675e         0         0         0         0  
     122  hru00122                 0       0.32147      52.58530      18.69239      90.03023       122     s52584n18704e         0         0         0         0  
     123  hru00123                 0       0.10999      52.58564      18.68660      86.58705       123     s52586n18675e         0         0         0         0  
     124  hru00124                 0       0.23878      52.58568      18.68403      87.19875       124     s52586n18675e         0         0         0         0  
     125  hru00125                 0       0.19008      52.62920      18.68221      91.01143       125     s52621n18682e         0         0         0         0  
     126  hru00126                 0       0.05415      52.62576      18.68106      90.49526       126     s52621n18682e         0         0         0         0  
     127  hru00127                 0       0.02773      52.62901      18.68207      91.23727       127     s52621n18682e         0         0         0         0  
     128  hru00128                 0       1.44034      52.66852      18.68707      91.39516       128     s52657n18689e         0         0         0         0  
     129  hru00129                 0       1.50572      52.66842      18.68854      91.59203       129     s52657n18689e         0         0         0         0  
     130  hru00130                 0       0.14065      52.61739      18.75765      94.82877       130      s52617n1874e         0         0         0         0  
     131  hru00131                 0       0.41781      52.61827      18.75788      95.04054       131      s52617n1874e         0         0         0         0  
     132  hru00132                 0       0.24889      52.61869      18.75708      94.70609       132      s52617n1874e         0         0         0         0  
     133  hru00133                 0       3.68812      52.56174      18.68801      92.82903       133       s52566n187e         0         0         0         0  
     134  hru00134                 0       0.12481      52.56835      18.70552      92.07808       134       s52566n187e         0         0         0         0  
     135  hru00135                 0       0.04187      52.57160      18.70575      92.28750       135       s52566n187e         0         0         0         0  
     136  hru00136                 0       0.97765      52.56940      18.70573      93.40204       136       s52566n187e         0         0         0         0  
     137  hru00137                 0       0.40714      52.56880      18.70615      94.14307       137       s52566n187e         0         0         0         0  
     138  hru00138                 0       0.50146      52.56906      18.70436      90.24594       138       s52566n187e         0         0         0         0  
     139  hru00139                 0       0.11449      52.56981      18.70471      91.45320       139       s52566n187e         0         0         0         0  
     140  hru00140                 0       1.60118      52.56117      18.68654      90.55953       140       s52566n187e         0         0         0         0  
     141  hru00141                 0       0.30750      52.56089      18.68946      89.58455       141       s52566n187e         0         0         0         0  
     142  hru00142                 0       0.11381      52.56779      18.70499      91.16756       142       s52566n187e         0         0         0         0  
     143  hru00143                 0       0.56913      52.54393      18.71292      97.65013       143     s52546n18726e         0         0         0         0  
     144  hru00144                 0       0.08577      52.58286      18.70468      92.50676       144     s52584n18704e         0         0         0         0  
     145  hru00145                 0       0.14805      52.58287      18.70346      92.23917       145     s52584n18704e         0         0         0         0  
     146  hru00146                 0       0.30758      52.58212      18.69795      91.99089       146     s52584n18704e         0         0         0         0  
     147  hru00147                 0       0.18657      52.58214      18.69895      92.33613       147     s52584n18704e         0         0         0         0  
     148  hru00148                 0       0.24309      52.58334      18.70339      92.16010       148     s52584n18704e         0         0         0         0  
     149  hru00149                 0       0.43962      52.58344      18.70468      92.23079       149     s52584n18704e         0         0         0         0  
     150  hru00150                 0       0.54030      52.58307      18.69622      91.40097       150     s52584n18704e         0         0         0         0  
     151  hru00151                 0       0.04067      52.57667      18.69975      87.94895       151     s52584n18704e         0         0         0         0  
     152  hru00152                 0       0.25081      52.65277      18.69807      90.75912       152     s52657n18689e         0         0         0         0  
     153  hru00153                 0       0.34630      52.58057      18.70056      91.99583       153     s52584n18704e         0         0         0         0  
     154  hru00154                 0       0.11801      52.57716      18.70058      87.82826       154     s52584n18704e         0         0         0         0  
     155  hru00155                 0       0.89141      52.58137      18.70003      92.43792       155     s52584n18704e         0         0         0         0  
     156  hru00156                 0       0.59825      52.57677      18.70109      87.26749       156     s52584n18704e         0         0         0         0  
     157  hru00157                 0       0.10361      52.57068      18.71932      98.98905       157      s52564n1873e         0         0         0         0  
     158  hru00158                 0       0.74857      52.58234      18.70412      92.34574       158     s52584n18704e         0         0         0         0  
     159  hru00159                 0       0.11346      52.65263      18.69931      90.99600       159     s52657n18689e         0         0         0         0  
     160  hru00160                 0       0.13107      52.64806      18.67599      88.09000       160     s52639n18685e         0         0         0         0  
     161  hru00161                 0       0.24596      52.65116      18.67468      88.57222       161     s52657n18689e         0         0         0         0  
     162  hru00162                 0       0.10913      52.65143      18.67623      88.81023       162     s52657n18689e         0         0         0         0  
     163  hru00163                 0       0.11001      52.65134      18.67898      88.69744       163     s52657n18689e         0         0         0         0  
     164  hru00164                 0       0.19221      52.65140      18.67725      88.75722       164     s52657n18689e         0         0         0         0  
     165  hru00165                 0       0.08823      52.63364      18.69201      87.90758       165     s52639n18685e         0         0         0         0  
     166  hru00166                 0       0.18203      52.65127      18.68029      88.93720       166     s52657n18689e         0         0         0         0  
     167  hru00167                 0       0.70944      52.55305      18.67158      85.28188       167     s52568n18671e         0         0         0         0  
     168  hru00168                 0       2.22814      52.55367      18.67030      83.56622       168     s52568n18671e         0         0         0         0  
     169  hru00169                 0       0.12261      52.55716      18.73167      90.53729       169      s52564n1873e         0         0         0         0  
     170  hru00170                 0       2.49365      52.54339      18.72258      94.37331       170     s52546n18726e         0         0         0         0  
     171  hru00171                 0       1.19358      52.54402      18.72313      94.14128       171     s52546n18726e         0         0         0         0  
     172  hru00172                 0       3.21339      52.54210      18.72743      94.70489       172     s52546n18726e         0         0         0         0  
     173  hru00173                 0       0.45229      52.54248      18.72505      94.41762       173     s52546n18726e         0         0         0         0  
     174  hru00174                 0       0.65811      52.54298      18.72563      94.27274       174     s52546n18726e         0         0         0         0  
     175  hru00175                 0       0.81103      52.54957      18.71729      94.03040       175     s52546n18726e         0         0         0         0  
     176  hru00176                 0       0.84799      52.60351      18.55293     103.52106       176     s52612n18561e         0         0         0         0  
     177  hru00177                 0       1.52155      52.60297      18.55183     107.87111       177     s52612n18561e         0         0         0         0  
     178  hru00178                 0       1.21943      52.54113      18.72781      95.34460       178     s52546n18726e         0         0         0         0  
     179  hru00179                 0       1.91596      52.54035      18.72957      95.76360       179     s52546n18726e         0         0         0         0  
     180  hru00180                 0       0.31035      52.54171      18.72462      94.76669       180     s52546n18726e         0         0         0         0  
     181  hru00181                 0       0.44083      52.54117      18.72624      95.33657       181     s52546n18726e         0         0         0         0  
     182  hru00182                 0       1.91843      52.54287      18.72222      94.78198       182     s52546n18726e         0         0         0         0  