hydrology.res: written by SWAT+ editor v2.1.0 on 2024-10-10 09:02 for SWAT+ rev.2.1.4
name                 yr_op    mon_op       area_ps        vol_ps       area_es        vol_es             k       evap_co       shp_co1       shp_co2  
res01                    1         1       1.06202      10.62015       1.22132      12.21317       0.00000       0.60000       0.00000       0.00000  
res02                    1         1       1.17672      11.76719       1.35323      13.53227       0.00000       0.60000       0.00000       0.00000  
res03                    1         1       0.46592       4.65925       0.53581       5.35813       0.00000       0.60000       0.00000       0.00000  
res04                    1         1      15.43931     154.39310      17.75521     177.55206       0.00000       0.60000       0.00000       0.00000  
res05                    1         1       0.02660       0.26599       0.03059       0.30589       0.00000       0.60000       0.00000       0.00000  
res06                    1         1       0.87602       8.76024       1.00743      10.07428       0.00000       0.60000       0.00000       0.00000  
res07                    1         1       0.51462       5.14615       0.59181       5.91807       0.00000       0.60000       0.00000       0.00000  
res08                    1         1       1.59038      15.90382       1.82894      18.28940       0.00000       0.60000       0.00000       0.00000  
res09                    1         1       0.33880       3.38800       0.38962       3.89620       0.00000       0.60000       0.00000       0.00000  
res10                    1         1       0.50457       5.04570       0.58026       5.80255       0.00000       0.60000       0.00000       0.00000  
res11                    1         1       0.83721       8.37208       0.96279       9.62789       0.00000       0.60000       0.00000       0.00000  
res12                    1         1       0.04305       0.43047       0.04950       0.49504       0.00000       0.60000       0.00000       0.00000  
res13                    1         1       0.84122       8.41216       0.96740       9.67398       0.00000       0.60000       0.00000       0.00000  
res14                    1         1       0.35452       3.54518       0.40770       4.07695       0.00000       0.60000       0.00000       0.00000  
res15                    1         1       0.53756       5.37563       0.61820       6.18197       0.00000       0.60000       0.00000       0.00000  
res16                    1         1       0.06533       0.65329       0.07513       0.75128       0.00000       0.60000       0.00000       0.00000  
res17                    1         1       0.32354       3.23539       0.37207       3.72070       0.00000       0.60000       0.00000       0.00000  
res18                    1         1       0.06171       0.61709       0.07097       0.70966       0.00000       0.60000       0.00000       0.00000  
res19                    1         1       0.33674       3.36745       0.38726       3.87257       0.00000       0.60000       0.00000       0.00000  
res20                    1         1       0.06077       0.60767       0.06988       0.69882       0.00000       0.60000       0.00000       0.00000  
res21                    1         1       0.54232       5.42320       0.62367       6.23668       0.00000       0.60000       0.00000       0.00000  
res22                    1         1       3.04993      30.49934       3.50742      35.07424       0.00000       0.60000       0.00000       0.00000  
res23                    1         1       2.91755      29.17550       3.35518      33.55183       0.00000       0.60000       0.00000       0.00000  
res24                    1         1       0.40128       4.01284       0.46148       4.61476       0.00000       0.60000       0.00000       0.00000  
res25                    1         1       7.94966      79.49662       9.14211      91.42111       0.00000       0.60000       0.00000       0.00000  
res26                    1         1       0.76232       7.62325       0.87667       8.76674       0.00000       0.60000       0.00000       0.00000  
res27                    1         1       9.06373      90.63725      10.42328     104.23284       0.00000       0.60000       0.00000       0.00000  
