hydrology.wet: written by SWAT+ editor v2.1.0 on 2024-01-23 16:25 for SWAT+ rev.2.1.4
name                    hru_ps         dp_ps        hru_es         dp_es             k          evap   vol_area_co      vol_dp_a      vol_dp_b      hru_frac  
hydwet03641            0.40000      50.00000       0.75000     200.00000       0.01000       0.90000       1.00000       1.00000       1.00000       1.00000  
hydwet03825            0.40000      50.00000       0.75000     200.00000       0.01000       0.90000       1.00000       1.00000       1.00000       1.00000  
hydwet03835            0.40000      50.00000       0.75000     200.00000       0.01000       0.90000       1.00000       1.00000       1.00000       1.00000  
hydwet03847            0.40000      50.00000       0.75000     200.00000       0.01000       0.90000       1.00000       1.00000       1.00000       1.00000  
hydwet03853            0.40000      50.00000       0.75000     200.00000       0.01000       0.90000       1.00000       1.00000       1.00000       1.00000  
hydwet03867            0.40000      50.00000       0.75000     200.00000       0.01000       0.90000       1.00000       1.00000       1.00000       1.00000  
hydwet03877            0.40000      50.00000       0.75000     200.00000       0.01000       0.90000       1.00000       1.00000       1.00000       1.00000  
hydwet03884            0.40000      50.00000       0.75000     200.00000       0.01000       0.90000       1.00000       1.00000       1.00000       1.00000  
hydwet03885            0.40000      50.00000       0.75000     200.00000       0.01000       0.90000       1.00000       1.00000       1.00000       1.00000  
hydwet03894            0.40000      50.00000       0.75000     200.00000       0.01000       0.90000       1.00000       1.00000       1.00000       1.00000  
hydwet03908            0.40000      50.00000       0.75000     200.00000       0.01000       0.90000       1.00000       1.00000       1.00000       1.00000  
hydwet03926            0.40000      50.00000       0.75000     200.00000       0.01000       0.90000       1.00000       1.00000       1.00000       1.00000  
hydwet03930            0.40000      50.00000       0.75000     200.00000       0.01000       0.90000       1.00000       1.00000       1.00000       1.00000  
hydwet03931            0.40000      50.00000       0.75000     200.00000       0.01000       0.90000       1.00000       1.00000       1.00000       1.00000  
hydwet03932            0.40000      50.00000       0.75000     200.00000       0.01000       0.90000       1.00000       1.00000       1.00000       1.00000  
hydwet03933            0.40000      50.00000       0.75000     200.00000       0.01000       0.90000       1.00000       1.00000       1.00000       1.00000  
hydwet03935            0.40000      50.00000       0.75000     200.00000       0.01000       0.90000       1.00000       1.00000       1.00000       1.00000  
hydwet03942            0.40000      50.00000       0.75000     200.00000       0.01000       0.90000       1.00000       1.00000       1.00000       1.00000  
hydwet03945            0.40000      50.00000       0.75000     200.00000       0.01000       0.90000       1.00000       1.00000       1.00000       1.00000  
hydwet03946            0.40000      50.00000       0.75000     200.00000       0.01000       0.90000       1.00000       1.00000       1.00000       1.00000  
hydwet03953            0.40000      50.00000       0.75000     200.00000       0.01000       0.90000       1.00000       1.00000       1.00000       1.00000  
hydwet03957            0.40000      50.00000       0.75000     200.00000       0.01000       0.90000       1.00000       1.00000       1.00000       1.00000  
hydwet03964            0.40000      50.00000       0.75000     200.00000       0.01000       0.90000       1.00000       1.00000       1.00000       1.00000  
hydwet03968            0.40000      50.00000       0.75000     200.00000       0.01000       0.90000       1.00000       1.00000       1.00000       1.00000  
hydwet03973            0.40000      50.00000       0.75000     200.00000       0.01000       0.90000       1.00000       1.00000       1.00000       1.00000  
hydwet03981            0.40000      50.00000       0.75000     200.00000       0.01000       0.90000       1.00000       1.00000       1.00000       1.00000  
hydwet07744            0.40000      50.00000       0.75000     200.00000       0.01000       0.90000       1.00000       1.00000       1.00000       1.00000  
hydwet09729            0.40000      50.00000       0.75000     200.00000       0.01000       0.90000       1.00000       1.00000       1.00000       1.00000  
hydwet09846            0.40000      50.00000       0.75000     200.00000       0.01000       0.90000       1.00000       1.00000       1.00000       1.00000  
hydwet09855            0.40000      50.00000       0.75000     200.00000       0.01000       0.90000       1.00000       1.00000       1.00000       1.00000  
hydwet09871            0.40000      50.00000       0.75000     200.00000       0.01000       0.90000       1.00000       1.00000       1.00000       1.00000  
hydwet09880            0.40000      50.00000       0.75000     200.00000       0.01000       0.90000       1.00000       1.00000       1.00000       1.00000  
hydwet09881            0.40000      50.00000       0.75000     200.00000       0.01000       0.90000       1.00000       1.00000       1.00000       1.00000  
hydwet09910            0.40000      50.00000       0.75000     200.00000       0.01000       0.90000       1.00000       1.00000       1.00000       1.00000  
hydwet09922            0.40000      50.00000       0.75000     200.00000       0.01000       0.90000       1.00000       1.00000       1.00000       1.00000  
hydwet09924            0.40000      50.00000       0.75000     200.00000       0.01000       0.90000       1.00000       1.00000       1.00000       1.00000  
hydwet09926            0.40000      50.00000       0.75000     200.00000       0.01000       0.90000       1.00000       1.00000       1.00000       1.00000  
hydwet10146            0.40000      50.00000       0.75000     200.00000       0.01000       0.90000       1.00000       1.00000       1.00000       1.00000  
hydwet10155            0.40000      50.00000       0.75000     200.00000       0.01000       0.90000       1.00000       1.00000       1.00000       1.00000  
hydwet10159            0.40000      50.00000       0.75000     200.00000       0.01000       0.90000       1.00000       1.00000       1.00000       1.00000  
hydwet10160            0.40000      50.00000       0.75000     200.00000       0.01000       0.90000       1.00000       1.00000       1.00000       1.00000  
hydwet10169            0.40000      50.00000       0.75000     200.00000       0.01000       0.90000       1.00000       1.00000       1.00000       1.00000  
hydwet10195            0.40000      50.00000       0.75000     200.00000       0.01000       0.90000       1.00000       1.00000       1.00000       1.00000  
hydwet10196            0.40000      50.00000       0.75000     200.00000       0.01000       0.90000       1.00000       1.00000       1.00000       1.00000  
hydwet10197            0.40000      50.00000       0.75000     200.00000       0.01000       0.90000       1.00000       1.00000       1.00000       1.00000  
hydwet10198            0.40000      50.00000       0.75000     200.00000       0.01000       0.90000       1.00000       1.00000       1.00000       1.00000  
hydwet10199            0.40000      50.00000       0.75000     200.00000       0.01000       0.90000       1.00000       1.00000       1.00000       1.00000  
hydwet10200            0.40000      50.00000       0.75000     200.00000       0.01000       0.90000       1.00000       1.00000       1.00000       1.00000  
hydwet10201            0.40000      50.00000       0.75000     200.00000       0.01000       0.90000       1.00000       1.00000       1.00000       1.00000  
hydwet10210            0.40000      50.00000       0.75000     200.00000       0.01000       0.90000       1.00000       1.00000       1.00000       1.00000  
hydwet10211            0.40000      50.00000       0.75000     200.00000       0.01000       0.90000       1.00000       1.00000       1.00000       1.00000  
hydwet10213            0.40000      50.00000       0.75000     200.00000       0.01000       0.90000       1.00000       1.00000       1.00000       1.00000  
hydwet10214            0.40000      50.00000       0.75000     200.00000       0.01000       0.90000       1.00000       1.00000       1.00000       1.00000  
hydwet10215            0.40000      50.00000       0.75000     200.00000       0.01000       0.90000       1.00000       1.00000       1.00000       1.00000  
hydwet10216            0.40000      50.00000       0.75000     200.00000       0.01000       0.90000       1.00000       1.00000       1.00000       1.00000  
hydwet10219            0.40000      50.00000       0.75000     200.00000       0.01000       0.90000       1.00000       1.00000       1.00000       1.00000  
hydwet10220            0.40000      50.00000       0.75000     200.00000       0.01000       0.90000       1.00000       1.00000       1.00000       1.00000  
hydwet10221            0.40000      50.00000       0.75000     200.00000       0.01000       0.90000       1.00000       1.00000       1.00000       1.00000  
hydwet10222            0.40000      50.00000       0.75000     200.00000       0.01000       0.90000       1.00000       1.00000       1.00000       1.00000  
hydwet10223            0.40000      50.00000       0.75000     200.00000       0.01000       0.90000       1.00000       1.00000       1.00000       1.00000  
hydwet10224            0.40000      50.00000       0.75000     200.00000       0.01000       0.90000       1.00000       1.00000       1.00000       1.00000  
hydwet10225            0.40000      50.00000       0.75000     200.00000       0.01000       0.90000       1.00000       1.00000       1.00000       1.00000  
hydwet10226            0.40000      50.00000       0.75000     200.00000       0.01000       0.90000       1.00000       1.00000       1.00000       1.00000  
hydwet10227            0.40000      50.00000       0.75000     200.00000       0.01000       0.90000       1.00000       1.00000       1.00000       1.00000  
hydwet10228            0.40000      50.00000       0.75000     200.00000       0.01000       0.90000       1.00000       1.00000       1.00000       1.00000  
hydwet10229            0.40000      50.00000       0.75000     200.00000       0.01000       0.90000       1.00000       1.00000       1.00000       1.00000  
hydwet10230            0.40000      50.00000       0.75000     200.00000       0.01000       0.90000       1.00000       1.00000       1.00000       1.00000  
hydwet10231            0.40000      50.00000       0.75000     200.00000       0.01000       0.90000       1.00000       1.00000       1.00000       1.00000  
hydwet10232            0.40000      50.00000       0.75000     200.00000       0.01000       0.90000       1.00000       1.00000       1.00000       1.00000  
hydwet10235            0.40000      50.00000       0.75000     200.00000       0.01000       0.90000       1.00000       1.00000       1.00000       1.00000  
hydwet10236            0.40000      50.00000       0.75000     200.00000       0.01000       0.90000       1.00000       1.00000       1.00000       1.00000  
hydwet10237            0.40000      50.00000       0.75000     200.00000       0.01000       0.90000       1.00000       1.00000       1.00000       1.00000  
hydwet10238            0.40000      50.00000       0.75000     200.00000       0.01000       0.90000       1.00000       1.00000       1.00000       1.00000  
