initial.cha: written by SWAT+ editor v2.1.0 on 2024-10-10 09:02 for SWAT+ rev.2.1.4
name                       org_min              pest              path              hmet              salt  description       
initcha1                   no_init              null              null              null              null  null              
