landuse.lum: written by SWAT+ editor v2.1.0 on 2024-10-10 09:02 for SWAT+ rev.2.1.4, edited manually on 2024-10-10 09:42:11.823674 and edited with SWATfarmR 2.0.5 on 2024-10-10 22:05:40.474735
name                         cal_group          plnt_com               mgt               cn2         cons_prac             urban            urb_ro           ov_mann              tile               sep               vfs              grww               bmp
alfa_drn_lum_4128_1               null alfa_drn_comm_4128_1 alfa_drn_mgt_4128_1             pasth     up_down_slope              null              null        densegrass         mw24_1000              null              null              null              null
alfa_drn_lum_4129_1               null alfa_drn_comm_4129_1 alfa_drn_mgt_4129_1             pasth     up_down_slope              null              null        densegrass         mw24_1000              null              null              null              null
alfa_drn_lum_4308_1               null alfa_drn_comm_4308_1 alfa_drn_mgt_4308_1             pasth     up_down_slope              null              null        densegrass         mw24_1000              null              null              null              null
alfa_drn_lum_4328_1               null alfa_drn_comm_4328_1 alfa_drn_mgt_4328_1             pasth     up_down_slope              null              null        densegrass         mw24_1000              null              null              null              null
alfa_drn_lum_4340_1               null alfa_drn_comm_4340_1 alfa_drn_mgt_4340_1             pasth     up_down_slope              null              null        densegrass         mw24_1000              null              null              null              null
alfa_drn_lum_4341_1               null alfa_drn_comm_4341_1 alfa_drn_mgt_4341_1             pasth     up_down_slope              null              null        densegrass         mw24_1000              null              null              null              null
alfa_drn_lum_4346_1               null alfa_drn_comm_4346_1 alfa_drn_mgt_4346_1             pasth     up_down_slope              null              null        densegrass         mw24_1000              null              null              null              null
alfa_drn_lum_4358_1               null alfa_drn_comm_4358_1 alfa_drn_mgt_4358_1             pasth     up_down_slope              null              null        densegrass         mw24_1000              null              null              null              null
alfa_drn_lum_4363_1               null alfa_drn_comm_4363_1 alfa_drn_mgt_4363_1             pasth     up_down_slope              null              null        densegrass         mw24_1000              null              null              null              null
alfa_drn_lum_4371_1               null alfa_drn_comm_4371_1 alfa_drn_mgt_4371_1             pasth     up_down_slope              null              null        densegrass         mw24_1000              null              null              null              null
alfa_drn_lum_4379_1               null alfa_drn_comm_4379_1 alfa_drn_mgt_4379_1             pasth     up_down_slope              null              null        densegrass         mw24_1000              null              null              null              null
alfa_drn_lum_4409_1               null alfa_drn_comm_4409_1 alfa_drn_mgt_4409_1             pasth     up_down_slope              null              null        densegrass         mw24_1000              null              null              null              null
alfa_drn_lum_4415_1               null alfa_drn_comm_4415_1 alfa_drn_mgt_4415_1             pasth     up_down_slope              null              null        densegrass         mw24_1000              null              null              null              null
alfa_drn_lum_4457_1               null alfa_drn_comm_4457_1 alfa_drn_mgt_4457_1             pasth     up_down_slope              null              null        densegrass         mw24_1000              null              null              null              null
alfa_drn_lum_4547_1               null alfa_drn_comm_4547_1 alfa_drn_mgt_4547_1             pasth     up_down_slope              null              null        densegrass         mw24_1000              null              null              null              null
alfa_drn_lum_4550_1               null alfa_drn_comm_4550_1 alfa_drn_mgt_4550_1             pasth     up_down_slope              null              null        densegrass         mw24_1000              null              null              null              null
alfa_drn_lum_4572_1               null alfa_drn_comm_4572_1 alfa_drn_mgt_4572_1             pasth     up_down_slope              null              null        densegrass         mw24_1000              null              null              null              null
alfa_drn_lum_4574_1               null alfa_drn_comm_4574_1 alfa_drn_mgt_4574_1             pasth     up_down_slope              null              null        densegrass         mw24_1000              null              null              null              null
alfa_drn_lum_4585_1               null alfa_drn_comm_4585_1 alfa_drn_mgt_4585_1             pasth     up_down_slope              null              null        densegrass         mw24_1000              null              null              null              null
alfa_drn_lum_4600_1               null alfa_drn_comm_4600_1 alfa_drn_mgt_4600_1             pasth     up_down_slope              null              null        densegrass         mw24_1000              null              null              null              null
alfa_drn_lum_4618_1               null alfa_drn_comm_4618_1 alfa_drn_mgt_4618_1             pasth     up_down_slope              null              null        densegrass         mw24_1000              null              null              null              null
alfa_drn_lum_4623_1               null alfa_drn_comm_4623_1 alfa_drn_mgt_4623_1             pasth     up_down_slope              null              null        densegrass         mw24_1000              null              null              null              null
alfa_drn_lum_4643_1               null alfa_drn_comm_4643_1 alfa_drn_mgt_4643_1             pasth     up_down_slope              null              null        densegrass         mw24_1000              null              null              null              null
alfa_drn_lum_4660_1               null alfa_drn_comm_4660_1 alfa_drn_mgt_4660_1             pasth     up_down_slope              null              null        densegrass         mw24_1000              null              null              null              null
alfa_drn_lum_4661_1               null alfa_drn_comm_4661_1 alfa_drn_mgt_4661_1             pasth     up_down_slope              null              null        densegrass         mw24_1000              null              null              null              null
alfa_drn_lum_4681_1               null alfa_drn_comm_4681_1 alfa_drn_mgt_4681_1             pasth     up_down_slope              null              null        densegrass         mw24_1000              null              null              null              null
alfa_drn_lum_4692_1               null alfa_drn_comm_4692_1 alfa_drn_mgt_4692_1             pasth     up_down_slope              null              null        densegrass         mw24_1000              null              null              null              null
alfa_drn_lum_4739_1               null alfa_drn_comm_4739_1 alfa_drn_mgt_4739_1             pasth     up_down_slope              null              null        densegrass         mw24_1000              null              null              null              null
alfa_drn_lum_4748_1               null alfa_drn_comm_4748_1 alfa_drn_mgt_4748_1             pasth     up_down_slope              null              null        densegrass         mw24_1000              null              null              null              null
alfa_drn_lum_4762_1               null alfa_drn_comm_4762_1 alfa_drn_mgt_4762_1             pasth     up_down_slope              null              null        densegrass         mw24_1000              null              null              null              null
alfa_drn_lum_4865_1               null alfa_drn_comm_4865_1 alfa_drn_mgt_4865_1             pasth     up_down_slope              null              null        densegrass         mw24_1000              null              null              null              null
alfa_drn_lum_4880_1               null alfa_drn_comm_4880_1 alfa_drn_mgt_4880_1             pasth     up_down_slope              null              null        densegrass         mw24_1000              null              null              null              null
alfa_drn_lum_4912_1               null alfa_drn_comm_4912_1 alfa_drn_mgt_4912_1             pasth     up_down_slope              null              null        densegrass         mw24_1000              null              null              null              null
alfa_drn_lum_4916_1               null alfa_drn_comm_4916_1 alfa_drn_mgt_4916_1             pasth     up_down_slope              null              null        densegrass         mw24_1000              null              null              null              null
alfa_drn_lum_4952_1               null alfa_drn_comm_4952_1 alfa_drn_mgt_4952_1             pasth     up_down_slope              null              null        densegrass         mw24_1000              null              null              null              null
alfa_drn_lum_4962_1               null alfa_drn_comm_4962_1 alfa_drn_mgt_4962_1             pasth     up_down_slope              null              null        densegrass         mw24_1000              null              null              null              null
alfa_drn_lum_4963_1               null alfa_drn_comm_4963_1 alfa_drn_mgt_4963_1             pasth     up_down_slope              null              null        densegrass         mw24_1000              null              null              null              null
alfa_drn_lum_4973_1               null alfa_drn_comm_4973_1 alfa_drn_mgt_4973_1             pasth     up_down_slope              null              null        densegrass         mw24_1000              null              null              null              null
alfa_drn_lum_4988_1               null alfa_drn_comm_4988_1 alfa_drn_mgt_4988_1             pasth     up_down_slope              null              null        densegrass         mw24_1000              null              null              null              null
alfa_drn_lum_5036_1               null alfa_drn_comm_5036_1 alfa_drn_mgt_5036_1             pasth     up_down_slope              null              null        densegrass         mw24_1000              null              null              null              null
alfa_drn_lum_5058_1               null alfa_drn_comm_5058_1 alfa_drn_mgt_5058_1             pasth     up_down_slope              null              null        densegrass         mw24_1000              null              null              null              null
alfa_drn_lum_5063_1               null alfa_drn_comm_5063_1 alfa_drn_mgt_5063_1             pasth     up_down_slope              null              null        densegrass         mw24_1000              null              null              null              null
alfa_drn_lum_5070_1               null alfa_drn_comm_5070_1 alfa_drn_mgt_5070_1             pasth     up_down_slope              null              null        densegrass         mw24_1000              null              null              null              null
alfa_drn_lum_5074_1               null alfa_drn_comm_5074_1 alfa_drn_mgt_5074_1             pasth     up_down_slope              null              null        densegrass         mw24_1000              null              null              null              null
alfa_drn_lum_5103_1               null alfa_drn_comm_5103_1 alfa_drn_mgt_5103_1             pasth     up_down_slope              null              null        densegrass         mw24_1000              null              null              null              null
alfa_drn_lum_5118_1               null alfa_drn_comm_5118_1 alfa_drn_mgt_5118_1             pasth     up_down_slope              null              null        densegrass         mw24_1000              null              null              null              null
alfa_drn_lum_5119_1               null alfa_drn_comm_5119_1 alfa_drn_mgt_5119_1             pasth     up_down_slope              null              null        densegrass         mw24_1000              null              null              null              null
alfa_drn_lum_5120_1               null alfa_drn_comm_5120_1 alfa_drn_mgt_5120_1             pasth     up_down_slope              null              null        densegrass         mw24_1000              null              null              null              null
alfa_drn_lum_5125_1               null alfa_drn_comm_5125_1 alfa_drn_mgt_5125_1             pasth     up_down_slope              null              null        densegrass         mw24_1000              null              null              null              null
alfa_drn_lum_5127_1               null alfa_drn_comm_5127_1 alfa_drn_mgt_5127_1             pasth     up_down_slope              null              null        densegrass         mw24_1000              null              null              null              null
alfa_drn_lum_5128_1               null alfa_drn_comm_5128_1 alfa_drn_mgt_5128_1             pasth     up_down_slope              null              null        densegrass         mw24_1000              null              null              null              null
alfa_drn_lum_5142_1               null alfa_drn_comm_5142_1 alfa_drn_mgt_5142_1             pasth     up_down_slope              null              null        densegrass         mw24_1000              null              null              null              null
alfa_drn_lum_5196_1               null alfa_drn_comm_5196_1 alfa_drn_mgt_5196_1             pasth     up_down_slope              null              null        densegrass         mw24_1000              null              null              null              null
alfa_drn_lum_5198_1               null alfa_drn_comm_5198_1 alfa_drn_mgt_5198_1             pasth     up_down_slope              null              null        densegrass         mw24_1000              null              null              null              null
alfa_drn_lum_5203_1               null alfa_drn_comm_5203_1 alfa_drn_mgt_5203_1             pasth     up_down_slope              null              null        densegrass         mw24_1000              null              null              null              null
alfa_drn_lum_5204_1               null alfa_drn_comm_5204_1 alfa_drn_mgt_5204_1             pasth     up_down_slope              null              null        densegrass         mw24_1000              null              null              null              null
alfa_drn_lum_5266_1               null alfa_drn_comm_5266_1 alfa_drn_mgt_5266_1             pasth     up_down_slope              null              null        densegrass         mw24_1000              null              null              null              null
alfa_drn_lum_5308_1               null alfa_drn_comm_5308_1 alfa_drn_mgt_5308_1             pasth     up_down_slope              null              null        densegrass         mw24_1000              null              null              null              null
alfa_drn_lum_5311_1               null alfa_drn_comm_5311_1 alfa_drn_mgt_5311_1             pasth     up_down_slope              null              null        densegrass         mw24_1000              null              null              null              null
alfa_drn_lum_5312_1               null alfa_drn_comm_5312_1 alfa_drn_mgt_5312_1             pasth     up_down_slope              null              null        densegrass         mw24_1000              null              null              null              null
alfa_drn_lum_5313_1               null alfa_drn_comm_5313_1 alfa_drn_mgt_5313_1             pasth     up_down_slope              null              null        densegrass         mw24_1000              null              null              null              null
alfa_drn_lum_5316_1               null alfa_drn_comm_5316_1 alfa_drn_mgt_5316_1             pasth     up_down_slope              null              null        densegrass         mw24_1000              null              null              null              null
alfa_drn_lum_5317_1               null alfa_drn_comm_5317_1 alfa_drn_mgt_5317_1             pasth     up_down_slope              null              null        densegrass         mw24_1000              null              null              null              null
alfa_drn_lum_5318_1               null alfa_drn_comm_5318_1 alfa_drn_mgt_5318_1             pasth     up_down_slope              null              null        densegrass         mw24_1000              null              null              null              null
alfa_drn_lum_5327_1               null alfa_drn_comm_5327_1 alfa_drn_mgt_5327_1             pasth     up_down_slope              null              null        densegrass         mw24_1000              null              null              null              null
alfa_drn_lum_5357_1               null alfa_drn_comm_5357_1 alfa_drn_mgt_5357_1             pasth     up_down_slope              null              null        densegrass         mw24_1000              null              null              null              null
alfa_drn_lum_5358_1               null alfa_drn_comm_5358_1 alfa_drn_mgt_5358_1             pasth     up_down_slope              null              null        densegrass         mw24_1000              null              null              null              null
alfa_drn_lum_5365_1               null alfa_drn_comm_5365_1 alfa_drn_mgt_5365_1             pasth     up_down_slope              null              null        densegrass         mw24_1000              null              null              null              null
alfa_drn_lum_5371_1               null alfa_drn_comm_5371_1 alfa_drn_mgt_5371_1             pasth     up_down_slope              null              null        densegrass         mw24_1000              null              null              null              null
alfa_drn_lum_5373_1               null alfa_drn_comm_5373_1 alfa_drn_mgt_5373_1             pasth     up_down_slope              null              null        densegrass         mw24_1000              null              null              null              null
alfa_drn_lum_5419_1               null alfa_drn_comm_5419_1 alfa_drn_mgt_5419_1             pasth     up_down_slope              null              null        densegrass         mw24_1000              null              null              null              null
alfa_drn_lum_5436_1               null alfa_drn_comm_5436_1 alfa_drn_mgt_5436_1             pasth     up_down_slope              null              null        densegrass         mw24_1000              null              null              null              null
alfa_drn_lum_5490_1               null alfa_drn_comm_5490_1 alfa_drn_mgt_5490_1             pasth     up_down_slope              null              null        densegrass         mw24_1000              null              null              null              null
alfa_drn_lum_5512_1               null alfa_drn_comm_5512_1 alfa_drn_mgt_5512_1             pasth     up_down_slope              null              null        densegrass         mw24_1000              null              null              null              null
alfa_drn_lum_5589_1               null alfa_drn_comm_5589_1 alfa_drn_mgt_5589_1             pasth     up_down_slope              null              null        densegrass         mw24_1000              null              null              null              null
alfa_drn_lum_5592_1               null alfa_drn_comm_5592_1 alfa_drn_mgt_5592_1             pasth     up_down_slope              null              null        densegrass         mw24_1000              null              null              null              null
alfa_drn_lum_5593_1               null alfa_drn_comm_5593_1 alfa_drn_mgt_5593_1             pasth     up_down_slope              null              null        densegrass         mw24_1000              null              null              null              null
alfa_drn_lum_5594_1               null alfa_drn_comm_5594_1 alfa_drn_mgt_5594_1             pasth     up_down_slope              null              null        densegrass         mw24_1000              null              null              null              null
alfa_drn_lum_5598_1               null alfa_drn_comm_5598_1 alfa_drn_mgt_5598_1             pasth     up_down_slope              null              null        densegrass         mw24_1000              null              null              null              null
alfa_drn_lum_5606_1               null alfa_drn_comm_5606_1 alfa_drn_mgt_5606_1             pasth     up_down_slope              null              null        densegrass         mw24_1000              null              null              null              null
alfa_drn_lum_5624_1               null alfa_drn_comm_5624_1 alfa_drn_mgt_5624_1             pasth     up_down_slope              null              null        densegrass         mw24_1000              null              null              null              null
alfa_drn_lum_5639_1               null alfa_drn_comm_5639_1 alfa_drn_mgt_5639_1             pasth     up_down_slope              null              null        densegrass         mw24_1000              null              null              null              null
alfa_drn_lum_5648_1               null alfa_drn_comm_5648_1 alfa_drn_mgt_5648_1             pasth     up_down_slope              null              null        densegrass         mw24_1000              null              null              null              null
alfa_drn_lum_5649_1               null alfa_drn_comm_5649_1 alfa_drn_mgt_5649_1             pasth     up_down_slope              null              null        densegrass         mw24_1000              null              null              null              null
alfa_drn_lum_5658_1               null alfa_drn_comm_5658_1 alfa_drn_mgt_5658_1             pasth     up_down_slope              null              null        densegrass         mw24_1000              null              null              null              null
alfa_drn_lum_5681_1               null alfa_drn_comm_5681_1 alfa_drn_mgt_5681_1             pasth     up_down_slope              null              null        densegrass         mw24_1000              null              null              null              null
alfa_drn_lum_5687_1               null alfa_drn_comm_5687_1 alfa_drn_mgt_5687_1             pasth     up_down_slope              null              null        densegrass         mw24_1000              null              null              null              null
alfa_drn_lum_5688_1               null alfa_drn_comm_5688_1 alfa_drn_mgt_5688_1             pasth     up_down_slope              null              null        densegrass         mw24_1000              null              null              null              null
alfa_drn_lum_5698_1               null alfa_drn_comm_5698_1 alfa_drn_mgt_5698_1             pasth     up_down_slope              null              null        densegrass         mw24_1000              null              null              null              null
alfa_drn_lum_5699_1               null alfa_drn_comm_5699_1 alfa_drn_mgt_5699_1             pasth     up_down_slope              null              null        densegrass         mw24_1000              null              null              null              null
alfa_drn_lum_5734_1               null alfa_drn_comm_5734_1 alfa_drn_mgt_5734_1             pasth     up_down_slope              null              null        densegrass         mw24_1000              null              null              null              null
alfa_drn_lum_5757_1               null alfa_drn_comm_5757_1 alfa_drn_mgt_5757_1             pasth     up_down_slope              null              null        densegrass         mw24_1000              null              null              null              null
alfa_drn_lum_5778_1               null alfa_drn_comm_5778_1 alfa_drn_mgt_5778_1             pasth     up_down_slope              null              null        densegrass         mw24_1000              null              null              null              null
alfa_drn_lum_5782_1               null alfa_drn_comm_5782_1 alfa_drn_mgt_5782_1             pasth     up_down_slope              null              null        densegrass         mw24_1000              null              null              null              null
alfa_drn_lum_5801_1               null alfa_drn_comm_5801_1 alfa_drn_mgt_5801_1             pasth     up_down_slope              null              null        densegrass         mw24_1000              null              null              null              null
alfa_drn_lum_5808_1               null alfa_drn_comm_5808_1 alfa_drn_mgt_5808_1             pasth     up_down_slope              null              null        densegrass         mw24_1000              null              null              null              null
alfa_drn_lum_5842_1               null alfa_drn_comm_5842_1 alfa_drn_mgt_5842_1             pasth     up_down_slope              null              null        densegrass         mw24_1000              null              null              null              null
alfa_drn_lum_5903_1               null alfa_drn_comm_5903_1 alfa_drn_mgt_5903_1             pasth     up_down_slope              null              null        densegrass         mw24_1000              null              null              null              null
alfa_drn_lum_5906_1               null alfa_drn_comm_5906_1 alfa_drn_mgt_5906_1             pasth     up_down_slope              null              null        densegrass         mw24_1000              null              null              null              null
alfa_drn_lum_5920_1               null alfa_drn_comm_5920_1 alfa_drn_mgt_5920_1             pasth     up_down_slope              null              null        densegrass         mw24_1000              null              null              null              null
alfa_drn_lum_5974_1               null alfa_drn_comm_5974_1 alfa_drn_mgt_5974_1             pasth     up_down_slope              null              null        densegrass         mw24_1000              null              null              null              null
alfa_drn_lum_5975_1               null alfa_drn_comm_5975_1 alfa_drn_mgt_5975_1             pasth     up_down_slope              null              null        densegrass         mw24_1000              null              null              null              null
alfa_drn_lum_5976_1               null alfa_drn_comm_5976_1 alfa_drn_mgt_5976_1             pasth     up_down_slope              null              null        densegrass         mw24_1000              null              null              null              null
alfa_drn_lum_6002_1               null alfa_drn_comm_6002_1 alfa_drn_mgt_6002_1             pasth     up_down_slope              null              null        densegrass         mw24_1000              null              null              null              null
alfa_drn_lum_6008_1               null alfa_drn_comm_6008_1 alfa_drn_mgt_6008_1             pasth     up_down_slope              null              null        densegrass         mw24_1000              null              null              null              null
alfa_drn_lum_6009_1               null alfa_drn_comm_6009_1 alfa_drn_mgt_6009_1             pasth     up_down_slope              null              null        densegrass         mw24_1000              null              null              null              null
alfa_drn_lum_6033_1               null alfa_drn_comm_6033_1 alfa_drn_mgt_6033_1             pasth     up_down_slope              null              null        densegrass         mw24_1000              null              null              null              null
alfa_drn_lum_6054_1               null alfa_drn_comm_6054_1 alfa_drn_mgt_6054_1             pasth     up_down_slope              null              null        densegrass         mw24_1000              null              null              null              null
alfa_drn_lum_6060_1               null alfa_drn_comm_6060_1 alfa_drn_mgt_6060_1             pasth     up_down_slope              null              null        densegrass         mw24_1000              null              null              null              null
alfa_drn_lum_6089_1               null alfa_drn_comm_6089_1 alfa_drn_mgt_6089_1             pasth     up_down_slope              null              null        densegrass         mw24_1000              null              null              null              null
alfa_drn_lum_6099_1               null alfa_drn_comm_6099_1 alfa_drn_mgt_6099_1             pasth     up_down_slope              null              null        densegrass         mw24_1000              null              null              null              null
alfa_drn_lum_6100_1               null alfa_drn_comm_6100_1 alfa_drn_mgt_6100_1             pasth     up_down_slope              null              null        densegrass         mw24_1000              null              null              null              null
alfa_drn_lum_6135_1               null alfa_drn_comm_6135_1 alfa_drn_mgt_6135_1             pasth     up_down_slope              null              null        densegrass         mw24_1000              null              null              null              null