ls_unit.ele: written by SWAT+ editor v2.1.0 on 2024-10-10 09:02 for SWAT+ rev.2.1.4
      id  name                   obj_typ  obj_typ_no      bsn_frac      sub_frac      reg_frac  
       1  hru00001                   hru           1     1.9695E-4       1.00000       0.00000  
       2  hru00002                   hru           2     2.3461E-6       1.00000       0.00000  
       3  hru00003                   hru           3     5.6689E-6       1.00000       0.00000  
       4  hru00004                   hru           4     5.8729E-6       1.00000       0.00000  
       5  hru00005                   hru           5     3.9147E-6       1.00000       0.00000  
       6  hru00006                   hru           6     2.8508E-6       1.00000       0.00000  
       7  hru00007                   hru           7     3.2729E-6       1.00000       0.00000  
       8  hru00008                   hru           8     1.1752E-6       1.00000       0.00000  
       9  hru00009                   hru           9     5.6791E-6       1.00000       0.00000  
      10  hru00010                   hru          10     1.6402E-5       1.00000       0.00000  
      11  hru00011                   hru          11     6.2340E-6       1.00000       0.00000  
      12  hru00012                   hru          12     5.0327E-5       1.00000       0.00000  
      13  hru00013                   hru          13     4.0757E-5       1.00000       0.00000  
      14  hru00014                   hru          14     5.2158E-5       1.00000       0.00000  
      15  hru00015                   hru          15     4.9457E-4       1.00000       0.00000  
      16  hru00016                   hru          16     1.3547E-6       1.00000       0.00000  
      17  hru00017                   hru          17     1.9870E-5       1.00000       0.00000  
      18  hru00018                   hru          18     3.2255E-6       1.00000       0.00000  
      19  hru00019                   hru          19     2.4071E-4       1.00000       0.00000  
      20  hru00020                   hru          20     4.4609E-6       1.00000       0.00000  
      21  hru00021                   hru          21     3.7689E-4       1.00000       0.00000  
      22  hru00022                   hru          22     1.3976E-6       1.00000       0.00000  
      23  hru00023                   hru          23     1.6150E-5       1.00000       0.00000  
      24  hru00024                   hru          24     1.9083E-4       1.00000       0.00000  
      25  hru00025                   hru          25     7.1260E-5       1.00000       0.00000  
      26  hru00026                   hru          26     3.6479E-6       1.00000       0.00000  
      27  hru00027                   hru          27     9.3592E-6       1.00000       0.00000  
      28  hru00028                   hru          28     3.6710E-6       1.00000       0.00000  
      29  hru00029                   hru          29     1.6474E-5       1.00000       0.00000  
      30  hru00030                   hru          30     1.4864E-6       1.00000       0.00000  
      31  hru00031                   hru          31     3.7520E-5       1.00000       0.00000  
      32  hru00032                   hru          32     1.1612E-4       1.00000       0.00000  
      33  hru00033                   hru          33     2.5295E-6       1.00000       0.00000  
      34  hru00034                   hru          34     6.1954E-6       1.00000       0.00000  
      35  hru00035                   hru          35     7.1059E-5       1.00000       0.00000  
      36  hru00036                   hru          36     4.9722E-5       1.00000       0.00000  
      37  hru00037                   hru          37     4.5601E-5       1.00000       0.00000  
      38  hru00038                   hru          38     2.7921E-5       1.00000       0.00000  
      39  hru00039                   hru          39     3.3890E-6       1.00000       0.00000  
      40  hru00040                   hru          40     2.2503E-5       1.00000       0.00000  
      41  hru00041                   hru          41     1.1224E-5       1.00000       0.00000  
      42  hru00042                   hru          42     1.3537E-5       1.00000       0.00000  
      43  hru00043                   hru          43     2.6762E-5       1.00000       0.00000  
      44  hru00044                   hru          44     2.2773E-4       1.00000       0.00000  
      45  hru00045                   hru          45     9.5867E-5       1.00000       0.00000  
      46  hru00046                   hru          46     2.4877E-6       1.00000       0.00000  
      47  hru00047                   hru          47     6.7227E-6       1.00000       0.00000  
      48  hru00048                   hru          48     2.8656E-6       1.00000       0.00000  
      49  hru00049                   hru          49     5.1602E-6       1.00000       0.00000  
      50  hru00050                   hru          50     2.3014E-5       1.00000       0.00000  
      51  hru00051                   hru          51     3.3557E-5       1.00000       0.00000  
      52  hru00052                   hru          52     6.0641E-5       1.00000       0.00000  
      53  hru00053                   hru          53     4.7656E-5       1.00000       0.00000  
      54  hru00054                   hru          54     5.2254E-6       1.00000       0.00000  
      55  hru00055                   hru          55     1.0384E-6       1.00000       0.00000  
      56  hru00056                   hru          56     1.5444E-5       1.00000       0.00000  
      57  hru00057                   hru          57     1.7915E-5       1.00000       0.00000  
      58  hru00058                   hru          58     1.6451E-5       1.00000       0.00000  
      59  hru00059                   hru          59     4.6473E-6       1.00000       0.00000  
      60  hru00060                   hru          60     1.2350E-5       1.00000       0.00000  
      61  hru00061                   hru          61     2.0292E-5       1.00000       0.00000  
      62  hru00062                   hru          62     6.0971E-6       1.00000       0.00000  
      63  hru00063                   hru          63     1.2404E-5       1.00000       0.00000  
      64  hru00064                   hru          64     1.1549E-4       1.00000       0.00000  
      65  hru00065                   hru          65     4.6643E-5       1.00000       0.00000  
      66  hru00066                   hru          66     5.8332E-5       1.00000       0.00000  
      67  hru00067                   hru          67     2.7529E-5       1.00000       0.00000  
      68  hru00068                   hru          68     3.6466E-5       1.00000       0.00000  
      69  hru00069                   hru          69     3.9621E-5       1.00000       0.00000  
      70  hru00070                   hru          70     1.6922E-5       1.00000       0.00000  
      71  hru00071                   hru          71     1.6774E-5       1.00000       0.00000  
      72  hru00072                   hru          72     2.0206E-5       1.00000       0.00000  
      73  hru00073                   hru          73     8.3750E-6       1.00000       0.00000  
      74  hru00074                   hru          74     2.3829E-6       1.00000       0.00000  
      75  hru00075                   hru          75     2.1786E-5       1.00000       0.00000  
      76  hru00076                   hru          76     3.9953E-5       1.00000       0.00000  
      77  hru00077                   hru          77     5.5668E-5       1.00000       0.00000  
      78  hru00078                   hru          78     3.3965E-6       1.00000       0.00000  
      79  hru00079                   hru          79     9.8759E-6       1.00000       0.00000  
      80  hru00080                   hru          80     2.0460E-4       1.00000       0.00000  
      81  hru00081                   hru          81     6.5427E-5       1.00000       0.00000  
      82  hru00082                   hru          82     6.5332E-5       1.00000       0.00000  
      83  hru00083                   hru          83     1.2093E-4       1.00000       0.00000  
      84  hru00084                   hru          84     3.2229E-5       1.00000       0.00000  
      85  hru00085                   hru          85     8.5017E-5       1.00000       0.00000  
      86  hru00086                   hru          86     8.1047E-5       1.00000       0.00000  
      87  hru00087                   hru          87     2.2085E-5       1.00000       0.00000  
      88  hru00088                   hru          88     3.2657E-6       1.00000       0.00000  
      89  hru00089                   hru          89     4.4520E-6       1.00000       0.00000  
      90  hru00090                   hru          90     1.6301E-6       1.00000       0.00000  
      91  hru00091                   hru          91     8.3622E-6       1.00000       0.00000  
      92  hru00092                   hru          92     3.2143E-6       1.00000       0.00000  
      93  hru00093                   hru          93     1.4303E-6       1.00000       0.00000  
      94  hru00094                   hru          94     1.1137E-4       1.00000       0.00000  
      95  hru00095                   hru          95     1.5061E-5       1.00000       0.00000  
      96  hru00096                   hru          96     2.4661E-5       1.00000       0.00000  
      97  hru00097                   hru          97     3.1393E-6       1.00000       0.00000  
      98  hru00098                   hru          98     3.2374E-4       1.00000       0.00000  
      99  hru00099                   hru          99     2.4912E-6       1.00000       0.00000  
     100  hru00100                   hru         100     5.8279E-5       1.00000       0.00000  
     101  hru00101                   hru         101     4.3030E-5       1.00000       0.00000  
     102  hru00102                   hru         102     4.2196E-5       1.00000       0.00000  
     103  hru00103                   hru         103     5.6377E-6       1.00000       0.00000  
     104  hru00104                   hru         104     6.9793E-5       1.00000       0.00000  
     105  hru00105                   hru         105     2.5638E-5       1.00000       0.00000  
     106  hru00106                   hru         106     8.3653E-6       1.00000       0.00000  
     107  hru00107                   hru         107     2.0271E-6       1.00000       0.00000  
     108  hru00108                   hru         108     1.0099E-5       1.00000       0.00000  
     109  hru00109                   hru         109     1.1597E-5       1.00000       0.00000  
     110  hru00110                   hru         110     4.4064E-6       1.00000       0.00000  
     111  hru00111                   hru         111     9.6520E-6       1.00000       0.00000  
     112  hru00112                   hru         112     2.0155E-5       1.00000       0.00000  
     113  hru00113                   hru         113     7.1058E-5       1.00000       0.00000  
     114  hru00114                   hru         114     3.2553E-5       1.00000       0.00000  
     115  hru00115                   hru         115     3.5752E-5       1.00000       0.00000  
     116  hru00116                   hru         116     3.3340E-5       1.00000       0.00000  
     117  hru00117                   hru         117     3.3704E-6       1.00000       0.00000  
     118  hru00118                   hru         118     5.7062E-6       1.00000       0.00000  
     119  hru00119                   hru         119     2.3320E-6       1.00000       0.00000  
     120  hru00120                   hru         120     1.0040E-5       1.00000       0.00000  
     121  hru00121                   hru         121     2.3488E-4       1.00000       0.00000  
     122  hru00122                   hru         122     2.1423E-5       1.00000       0.00000  
     123  hru00123                   hru         123     7.3302E-6       1.00000       0.00000  
     124  hru00124                   hru         124     1.5913E-5       1.00000       0.00000  
     125  hru00125                   hru         125     1.2667E-5       1.00000       0.00000  
     126  hru00126                   hru         126     3.6088E-6       1.00000       0.00000  
     127  hru00127                   hru         127     1.8480E-6       1.00000       0.00000  
     128  hru00128                   hru         128     9.5986E-5       1.00000       0.00000  
     129  hru00129                   hru         129     1.0034E-4       1.00000       0.00000  
     130  hru00130                   hru         130     9.3728E-6       1.00000       0.00000  
     131  hru00131                   hru         131     2.7843E-5       1.00000       0.00000  
     132  hru00132                   hru         132     1.6586E-5       1.00000       0.00000  
     133  hru00133                   hru         133     2.4578E-4       1.00000       0.00000  
     134  hru00134                   hru         134     8.3172E-6       1.00000       0.00000  
     135  hru00135                   hru         135     2.7901E-6       1.00000       0.00000  
     136  hru00136                   hru         136     6.5152E-5       1.00000       0.00000  
     137  hru00137                   hru         137     2.7132E-5       1.00000       0.00000  
     138  hru00138                   hru         138     3.3418E-5       1.00000       0.00000  
     139  hru00139                   hru         139     7.6297E-6       1.00000       0.00000  
     140  hru00140                   hru         140     1.0670E-4       1.00000       0.00000  
     141  hru00141                   hru         141     2.0492E-5       1.00000       0.00000  
     142  hru00142                   hru         142     7.5842E-6       1.00000       0.00000  
     143  hru00143                   hru         143     3.7928E-5       1.00000       0.00000  
     144  hru00144                   hru         144     5.7160E-6       1.00000       0.00000  
     145  hru00145                   hru         145     9.8663E-6       1.00000       0.00000  
     146  hru00146                   hru         146     2.0497E-5       1.00000       0.00000  
     147  hru00147                   hru         147     1.2433E-5       1.00000       0.00000  
     148  hru00148                   hru         148     1.6200E-5       1.00000       0.00000  
     149  hru00149                   hru         149     2.9297E-5       1.00000       0.00000  
     150  hru00150                   hru         150     3.6006E-5       1.00000       0.00000  
     151  hru00151                   hru         151     2.7101E-6       1.00000       0.00000  
     152  hru00152                   hru         152     1.6714E-5       1.00000       0.00000  
     153  hru00153                   hru         153     2.3078E-5       1.00000       0.00000  
     154  hru00154                   hru         154     7.8645E-6       1.00000       0.00000  
     155  hru00155                   hru         155     5.9405E-5       1.00000       0.00000  
     156  hru00156                   hru         156     3.9868E-5       1.00000       0.00000  
     157  hru00157                   hru         157     6.9048E-6       1.00000       0.00000  
     158  hru00158                   hru         158     4.9886E-5       1.00000       0.00000  
     159  hru00159                   hru         159     7.5609E-6       1.00000       0.00000  
     160  hru00160                   hru         160     8.7344E-6       1.00000       0.00000  
     161  hru00161                   hru         161     1.6391E-5       1.00000       0.00000  
     162  hru00162                   hru         162     7.2726E-6       1.00000       0.00000  
     163  hru00163                   hru         163     7.3312E-6       1.00000       0.00000  
     164  hru00164                   hru         164     1.2809E-5       1.00000       0.00000  
     165  hru00165                   hru         165     5.8795E-6       1.00000       0.00000  
     166  hru00166                   hru         166     1.2131E-5       1.00000       0.00000  
     167  hru00167                   hru         167     4.7278E-5       1.00000       0.00000  
     168  hru00168                   hru         168     1.4849E-4       1.00000       0.00000  
     169  hru00169                   hru         169     8.1710E-6       1.00000       0.00000  
     170  hru00170                   hru         170     1.6618E-4       1.00000       0.00000  
     171  hru00171                   hru         171     7.9542E-5       1.00000       0.00000  
     172  hru00172                   hru         172     2.1414E-4       1.00000       0.00000  
     173  hru00173                   hru         173     3.0141E-5       1.00000       0.00000  
     174  hru00174                   hru         174     4.3858E-5       1.00000       0.00000  
     175  hru00175                   hru         175     5.4048E-5       1.00000       0.00000  
     176  hru00176                   hru         176     5.6511E-5       1.00000       0.00000  
     177  hru00177                   hru         177     1.0140E-4       1.00000       0.00000  
     178  hru00178                   hru         178     8.1264E-5       1.00000       0.00000  
     179  hru00179                   hru         179     1.2768E-4       1.00000       0.00000  
     180  hru00180                   hru         180     2.0682E-5       1.00000       0.00000  
     181  hru00181                   hru         181     2.9378E-5       1.00000       0.00000  
     182  hru00182                   hru         182     1.2785E-4       1.00000       0.00000  
     183  hru00183                   hru         183     1.1226E-4       1.00000       0.00000  
     184  hru00184                   hru         184     1.7242E-4       1.00000       0.00000  
     185  hru00185                   hru         185     1.4148E-4       1.00000       0.00000  
     186  hru00186                   hru         186     1.6342E-5       1.00000       0.00000  
     187  hru00187                   hru         187     4.8923E-6       1.00000       0.00000  
     188  hru00188                   hru         188     2.0752E-5       1.00000       0.00000  
     189  hru00189                   hru         189     5.5687E-6       1.00000       0.00000  
     190  hru00190                   hru         190     1.2306E-5       1.00000       0.00000  
     191  hru00191                   hru         191     1.1650E-5       1.00000       0.00000  
     192  hru00192                   hru         192     4.8169E-5       1.00000       0.00000  
     193  hru00193                   hru         193     1.9987E-6       1.00000       0.00000  
     194  hru00194                   hru         194     2.6715E-6       1.00000       0.00000  
     195  hru00195                   hru         195     4.4347E-6       1.00000       0.00000  
     196  hru00196                   hru         196     9.0692E-6       1.00000       0.00000  
     197  hru00197                   hru         197     3.8209E-6       1.00000       0.00000  
     198  hru00198                   hru         198     1.2598E-6       1.00000       0.00000  
     199  hru00199                   hru         199     7.0175E-5       1.00000       0.00000  
     200  hru00200                   hru         200     5.3489E-5       1.00000       0.00000  
     201  hru00201                   hru         201     2.8569E-5       1.00000       0.00000  
     202  hru00202                   hru         202     9.6918E-5       1.00000       0.00000  
     203  hru00203                   hru         203     5.2315E-5       1.00000       0.00000  
     204  hru00204                   hru         204     1.9885E-4       1.00000       0.00000  
     205  hru00205                   hru         205     2.5315E-5       1.00000       0.00000  
     206  hru00206                   hru         206     8.1529E-5       1.00000       0.00000  
     207  hru00207                   hru         207     6.5604E-5       1.00000       0.00000  
     208  hru00208                   hru         208     1.0224E-5       1.00000       0.00000  
     209  hru00209                   hru         209     1.8944E-5       1.00000       0.00000  
     210  hru00210                   hru         210     5.8005E-5       1.00000       0.00000  
     211  hru00211                   hru         211     1.8170E-6       1.00000       0.00000  
     212  hru00212                   hru         212     6.9674E-6       1.00000       0.00000  
     213  hru00213                   hru         213     1.9260E-6       1.00000       0.00000  
     214  hru00214                   hru         214     1.8736E-5       1.00000       0.00000  
     215  hru00215                   hru         215     1.1123E-4       1.00000       0.00000  
     216  hru00216                   hru         216     7.1621E-6       1.00000       0.00000  
     217  hru00217                   hru         217     6.6967E-6       1.00000       0.00000  
     218  hru00218                   hru         218     1.6642E-5       1.00000       0.00000  
     219  hru00219                   hru         219     1.4158E-5       1.00000       0.00000  
     220  hru00220                   hru         220     4.6585E-6       1.00000       0.00000  
     221  hru00221                   hru         221     3.6976E-6       1.00000       0.00000  
     222  hru00222                   hru         222     5.6758E-6       1.00000       0.00000  
     223  hru00223                   hru         223     9.0233E-5       1.00000       0.00000  
     224  hru00224                   hru         224     9.3794E-5       1.00000       0.00000  
     225  hru00225                   hru         225     2.6877E-5       1.00000       0.00000  
     226  hru00226                   hru         226     1.9749E-5       1.00000       0.00000  
     227  hru00227                   hru         227     1.9966E-5       1.00000       0.00000  
     228  hru00228                   hru         228     1.7673E-6       1.00000       0.00000  
     229  hru00229                   hru         229     2.3255E-6       1.00000       0.00000  
     230  hru00230                   hru         230     3.5574E-6       1.00000       0.00000  
     231  hru00231                   hru         231     1.4669E-6       1.00000       0.00000  
     232  hru00232                   hru         232     4.5708E-5       1.00000       0.00000  
     233  hru00233                   hru         233     3.2854E-6       1.00000       0.00000  
     234  hru00234                   hru         234     3.8699E-6       1.00000       0.00000  
     235  hru00235                   hru         235     1.9343E-6       1.00000       0.00000  
     236  hru00236                   hru         236     3.3745E-5       1.00000       0.00000  
     237  hru00237                   hru         237     6.7768E-6       1.00000       0.00000  
     238  hru00238                   hru         238     2.2676E-6       1.00000       0.00000  
     239  hru00239                   hru         239     2.0551E-5       1.00000       0.00000  
     240  hru00240                   hru         240     1.7112E-5       1.00000       0.00000  
     241  hru00241                   hru         241     9.8258E-6       1.00000       0.00000  
     242  hru00242                   hru         242     7.3943E-5       1.00000       0.00000  
     243  hru00243                   hru         243     2.5642E-5       1.00000       0.00000  
     244  hru00244                   hru         244     2.2143E-6       1.00000       0.00000  
     245  hru00245                   hru         245     5.3261E-6       1.00000       0.00000  
     246  hru00246                   hru         246     7.3167E-6       1.00000       0.00000  
     247  hru00247                   hru         247     2.6353E-6       1.00000       0.00000  
     248  hru00248                   hru         248     3.1382E-5       1.00000       0.00000  
     249  hru00249                   hru         249     3.5860E-5       1.00000       0.00000  
     250  hru00250                   hru         250     1.0824E-5       1.00000       0.00000  
     251  hru00251                   hru         251     5.4697E-5       1.00000       0.00000  
     252  hru00252                   hru         252     1.1282E-5       1.00000       0.00000  
     253  hru00253                   hru         253     5.3301E-5       1.00000       0.00000  
     254  hru00254                   hru         254     3.7496E-6       1.00000       0.00000  
     255  hru00255                   hru         255     3.3624E-6       1.00000       0.00000  
     256  hru00256                   hru         256     1.0010E-5       1.00000       0.00000  
     257  hru00257                   hru         257     2.7203E-5       1.00000       0.00000  
     258  hru00258                   hru         258     2.1511E-4       1.00000       0.00000  
     259  hru00259                   hru         259     3.9006E-6       1.00000       0.00000  
     260  hru00260                   hru         260     5.2852E-5       1.00000       0.00000  
     261  hru00261                   hru         261     1.1659E-5       1.00000       0.00000  
     262  hru00262                   hru         262     2.7883E-6       1.00000       0.00000  
     263  hru00263                   hru         263     4.1424E-6       1.00000       0.00000  
     264  hru00264                   hru         264     2.8068E-6       1.00000       0.00000  
     265  hru00265                   hru         265     5.3067E-6       1.00000       0.00000  
     266  hru00266                   hru         266     6.9507E-5       1.00000       0.00000  
     267  hru00267                   hru         267     1.1871E-4       1.00000       0.00000  
     268  hru00268                   hru         268     7.7798E-5       1.00000       0.00000  
     269  hru00269                   hru         269     1.3807E-5       1.00000       0.00000  
     270  hru00270                   hru         270     8.6597E-6       1.00000       0.00000  
     271  hru00271                   hru         271     3.7215E-5       1.00000       0.00000  
     272  hru00272                   hru         272     9.9450E-5       1.00000       0.00000  
     273  hru00273                   hru         273     4.8889E-5       1.00000       0.00000  
     274  hru00274                   hru         274     3.7798E-5       1.00000       0.00000  
     275  hru00275                   hru         275     5.1988E-5       1.00000       0.00000  
     276  hru00276                   hru         276     3.4195E-5       1.00000       0.00000  
     277  hru00277                   hru         277     1.6377E-5       1.00000       0.00000  
     278  hru00278                   hru         278     5.6577E-5       1.00000       0.00000  
     279  hru00279                   hru         279     1.3991E-4       1.00000       0.00000  
     280  hru00280                   hru         280     5.1416E-5       1.00000       0.00000  
     281  hru00281                   hru         281     1.0844E-4       1.00000       0.00000  
     282  hru00282                   hru         282     1.6124E-4       1.00000       0.00000  
     283  hru00283                   hru         283     8.5810E-5       1.00000       0.00000  
     284  hru00284                   hru         284     2.6638E-5       1.00000       0.00000  
     285  hru00285                   hru         285     1.3563E-5       1.00000       0.00000  
     286  hru00286                   hru         286     2.0510E-5       1.00000       0.00000  
     287  hru00287                   hru         287     3.1279E-5       1.00000       0.00000  
     288  hru00288                   hru         288     2.2063E-4       1.00000       0.00000  
     289  hru00289                   hru         289     3.8729E-6       1.00000       0.00000  
     290  hru00290                   hru         290     2.9991E-6       1.00000       0.00000  
     291  hru00291                   hru         291     1.2608E-5       1.00000       0.00000  
     292  hru00292                   hru         292     1.0003E-5       1.00000       0.00000  
     293  hru00293                   hru         293     5.4277E-6       1.00000       0.00000  
     294  hru00294                   hru         294     5.7895E-6       1.00000       0.00000  
     295  hru00295                   hru         295     1.0439E-5       1.00000       0.00000  
     296  hru00296                   hru         296     3.0068E-5       1.00000       0.00000  
     297  hru00297                   hru         297     4.6727E-6       1.00000       0.00000  
     298  hru00298                   hru         298     7.9454E-6       1.00000       0.00000  
     299  hru00299                   hru         299     2.9438E-5       1.00000       0.00000  
     300  hru00300                   hru         300     5.2904E-5       1.00000       0.00000  
     301  hru00301                   hru         301     8.6418E-6       1.00000       0.00000  
     302  hru00302                   hru         302     2.4265E-4       1.00000       0.00000  
     303  hru00303                   hru         303     2.9921E-4       1.00000       0.00000  
     304  hru00304                   hru         304     1.0157E-4       1.00000       0.00000  
     305  hru00305                   hru         305     1.0508E-5       1.00000       0.00000  
     306  hru00306                   hru         306     5.7816E-5       1.00000       0.00000  
     307  hru00307                   hru         307     3.5031E-6       1.00000       0.00000  