ls_unit.def: written by SWAT+ editor v2.1.0 on 2024-10-10 09:02 for SWAT+ rev.2.1.4
10240
      id              name          area  elem_tot  elements  
       1          rtu00001       2.95540         1         1  
       2          rtu00002       0.03521         1         2  
       3          rtu00003       0.08507         1         3  
       4          rtu00004       0.08813         1         4  
       5          rtu00005       0.05874         1         5  
       6          rtu00006       0.04278         1         6  
       7          rtu00007       0.04911         1         7  
       8          rtu00008       0.01764         1         8  
       9          rtu00009       0.08522         1         9  
      10          rtu00010       0.24613         1        10  
      11          rtu00011       0.09355         1        11  
      12          rtu00012       0.75519         1        12  
      13          rtu00013       0.61160         1        13  
      14          rtu00014       0.78266         1        14  
      15          rtu00015       7.42142         1        15  
      16          rtu00016       0.02033         1        16  
      17          rtu00017       0.29817         1        17  
      18          rtu00018       0.04840         1        18  
      19          rtu00019       3.61198         1        19  
      20          rtu00020       0.06694         1        20  
      21          rtu00021       5.65555         1        21  
      22          rtu00022       0.02097         1        22  
      23          rtu00023       0.24234         1        23  
      24          rtu00024       2.86354         1        24  
      25          rtu00025       1.06931         1        25  
      26          rtu00026       0.05474         1        26  
      27          rtu00027       0.14044         1        27  
      28          rtu00028       0.05509         1        28  
      29          rtu00029       0.24721         1        29  
      30          rtu00030       0.02230         1        30  
      31          rtu00031       0.56301         1        31  
      32          rtu00032       1.74242         1        32  
      33          rtu00033       0.03796         1        33  
      34          rtu00034       0.09297         1        34  
      35          rtu00035       1.06629         1        35  
      36          rtu00036       0.74612         1        36  
      37          rtu00037       0.68427         1        37  
      38          rtu00038       0.41897         1        38  
      39          rtu00039       0.05086         1        39  
      40          rtu00040       0.33768         1        40  
      41          rtu00041       0.16843         1        41  
      42          rtu00042       0.20314         1        42  
      43          rtu00043       0.40158         1        43  
      44          rtu00044       3.41729         1        44  
      45          rtu00045       1.43855         1        45  
      46          rtu00046       0.03733         1        46  
      47          rtu00047       0.10088         1        47  
      48          rtu00048       0.04300         1        48  
      49          rtu00049       0.07743         1        49  
      50          rtu00050       0.34535         1        50  
      51          rtu00051       0.50354         1        51  
      52          rtu00052       0.90996         1        52  
      53          rtu00053       0.71511         1        53  
      54          rtu00054       0.07841         1        54  
      55          rtu00055       0.01558         1        55  
      56          rtu00056       0.23175         1        56  
      57          rtu00057       0.26883         1        57  
      58          rtu00058       0.24686         1        58  
      59          rtu00059       0.06974         1        59  
      60          rtu00060       0.18532         1        60  
      61          rtu00061       0.30450         1        61  
      62          rtu00062       0.09149         1        62  
      63          rtu00063       0.18614         1        63  
      64          rtu00064       1.73304         1        64  
      65          rtu00065       0.69991         1        65  
      66          rtu00066       0.87532         1        66  
      67          rtu00067       0.41310         1        67  
      68          rtu00068       0.54720         1        68  
      69          rtu00069       0.59454         1        69  
      70          rtu00070       0.25393         1        70  
      71          rtu00071       0.25171         1        71  
      72          rtu00072       0.30320         1        72  
      73          rtu00073       0.12567         1        73  
      74          rtu00074       0.03576         1        74  
      75          rtu00075       0.32692         1        75  
      76          rtu00076       0.59952         1        76  
      77          rtu00077       0.83535         1        77  
      78          rtu00078       0.05097         1        78  
      79          rtu00079       0.14820         1        79  
      80          rtu00080       3.07014         1        80  
      81          rtu00081       0.98179         1        81  
      82          rtu00082       0.98036         1        82  
      83          rtu00083       1.81463         1        83  
      84          rtu00084       0.48362         1        84  
      85          rtu00085       1.27574         1        85  
      86          rtu00086       1.21617         1        86  
      87          rtu00087       0.33140         1        87  
      88          rtu00088       0.04900         1        88  
      89          rtu00089       0.06681         1        89  
      90          rtu00090       0.02446         1        90  
      91          rtu00091       0.12548         1        91  
      92          rtu00092       0.04823         1        92  
      93          rtu00093       0.02146         1        93  
      94          rtu00094       1.67121         1        94  
      95          rtu00095       0.22600         1        95  
      96          rtu00096       0.37005         1        96  
      97          rtu00097       0.04711         1        97  
      98          rtu00098       4.85789         1        98  
      99          rtu00099       0.03738         1        99  
     100          rtu00100       0.87451         1       100  
     101          rtu00101       0.64570         1       101  
     102          rtu00102       0.63318         1       102  
     103          rtu00103       0.08460         1       103  
     104          rtu00104       1.04730         1       104  
     105          rtu00105       0.38471         1       105  
     106          rtu00106       0.12553         1       106  
     107          rtu00107       0.03042         1       107  
     108          rtu00108       0.15154         1       108  
     109          rtu00109       0.17403         1       109  
     110          rtu00110       0.06612         1       110  
     111          rtu00111       0.14483         1       111  
     112          rtu00112       0.30245         1       112  
     113          rtu00113       1.06627         1       113  
     114          rtu00114       0.48849         1       114  
     115          rtu00115       0.53648         1       115  
     116          rtu00116       0.50029         1       116  
     117          rtu00117       0.05058         1       117  
     118          rtu00118       0.08563         1       118  
     119          rtu00119       0.03499         1       119  
     120          rtu00120       0.15066         1       120  
     121          rtu00121       3.52453         1       121  
     122          rtu00122       0.32147         1       122  
     123          rtu00123       0.10999         1       123  
     124          rtu00124       0.23878         1       124  
     125          rtu00125       0.19008         1       125  
     126          rtu00126       0.05415         1       126  
     127          rtu00127       0.02773         1       127  
     128          rtu00128       1.44034         1       128  
     129          rtu00129       1.50572         1       129  
     130          rtu00130       0.14065         1       130  
     131          rtu00131       0.41781         1       131  
     132          rtu00132       0.24889         1       132  
     133          rtu00133       3.68812         1       133  
     134          rtu00134       0.12481         1       134  
     135          rtu00135       0.04187         1       135  
     136          rtu00136       0.97765         1       136  
     137          rtu00137       0.40714         1       137  
     138          rtu00138       0.50146         1       138  
     139          rtu00139       0.11449         1       139  
     140          rtu00140       1.60118         1       140  
     141          rtu00141       0.30750         1       141  
     142          rtu00142       0.11381         1       142  
     143          rtu00143       0.56913         1       143  
     144          rtu00144       0.08577         1       144  
     145          rtu00145       0.14805         1       145  
     146          rtu00146       0.30758         1       146  
     147          rtu00147       0.18657         1       147  
     148          rtu00148       0.24309         1       148  
     149          rtu00149       0.43962         1       149  
     150          rtu00150       0.54030         1       150  
     151          rtu00151       0.04067         1       151  
     152          rtu00152       0.25081         1       152  
     153          rtu00153       0.34630         1       153  
     154          rtu00154       0.11801         1       154  
     155          rtu00155       0.89141         1       155  
     156          rtu00156       0.59825         1       156  
     157          rtu00157       0.10361         1       157  
     158          rtu00158       0.74857         1       158  
     159          rtu00159       0.11346         1       159  
     160          rtu00160       0.13107         1       160  
     161          rtu00161       0.24596         1       161  
     162          rtu00162       0.10913         1       162  
     163          rtu00163       0.11001         1       163  
     164          rtu00164       0.19221         1       164  
     165          rtu00165       0.08823         1       165  
     166          rtu00166       0.18203         1       166  
     167          rtu00167       0.70944         1       167  
     168          rtu00168       2.22814         1       168  
     169          rtu00169       0.12261         1       169  
     170          rtu00170       2.49365         1       170  
     171          rtu00171       1.19358         1       171  
     172          rtu00172       3.21339         1       172  
     173          rtu00173       0.45229         1       173  
     174          rtu00174       0.65811         1       174  
     175          rtu00175       0.81103         1       175  
     176          rtu00176       0.84799         1       176  
     177          rtu00177       1.52155         1       177  
     178          rtu00178       1.21943         1       178  
     179          rtu00179       1.91596         1       179  
     180          rtu00180       0.31035         1       180  
     181          rtu00181       0.44083         1       181  
     182          rtu00182       1.91843         1       182  
     183          rtu00183       1.68460         1       183  
     184          rtu00184       2.58722         1       184  
     185          rtu00185       2.12294         1       185  
     186          rtu00186       0.24522         1       186  
     187          rtu00187       0.07341         1       187  
     188          rtu00188       0.31139         1       188  
     189          rtu00189       0.08356         1       189  
     190          rtu00190       0.18466         1       190  
     191          rtu00191       0.17481         1       191  
     192          rtu00192       0.72280         1       192  
     193          rtu00193       0.02999         1       193  
     194          rtu00194       0.04009         1       194  
     195          rtu00195       0.06655         1       195  
     196          rtu00196       0.13609         1       196  
     197          rtu00197       0.05733         1       197  
     198          rtu00198       0.01890         1       198  
     199          rtu00199       1.05303         1       199  
     200          rtu00200       0.80265         1       200  
     201          rtu00201       0.42870         1       201  
     202          rtu00202       1.45432         1       202  
     203          rtu00203       0.78502         1       203  
     204          rtu00204       2.98394         1       204  
     205          rtu00205       0.37987         1       205  
     206          rtu00206       1.22340         1       206  
     207          rtu00207       0.98444         1       207  
     208          rtu00208       0.15342         1       208  
     209          rtu00209       0.28426         1       209  
     210          rtu00210       0.87041         1       210  
     211          rtu00211       0.02727         1       211  
     212          rtu00212       0.10455         1       212  
     213          rtu00213       0.02890         1       213  
     214          rtu00214       0.28114         1       214  
     215          rtu00215       1.66912         1       215  
     216          rtu00216       0.10747         1       216  
     217          rtu00217       0.10049         1       217  
     218          rtu00218       0.24973         1       218  
     219          rtu00219       0.21246         1       219  
     220          rtu00220       0.06990         1       220  
     221          rtu00221       0.05548         1       221  
     222          rtu00222       0.08517         1       222  
     223          rtu00223       1.35401         1       223  
     224          rtu00224       1.40745         1       224  
     225          rtu00225       0.40331         1       225  
     226          rtu00226       0.29635         1       226  
     227          rtu00227       0.29961         1       227  
     228          rtu00228       0.02652         1       228  
     229          rtu00229       0.03490         1       229  
     230          rtu00230       0.05338         1       230  
     231          rtu00231       0.02201         1       231  
     232          rtu00232       0.68589         1       232  
     233          rtu00233       0.04930         1       233  
     234          rtu00234       0.05807         1       234  
     235          rtu00235       0.02903         1       235  
     236          rtu00236       0.50637         1       236  
     237          rtu00237       0.10169         1       237  
     238          rtu00238       0.03403         1       238  
     239          rtu00239       0.30838         1       239  
     240          rtu00240       0.25678         1       240  
     241          rtu00241       0.14744         1       241  
     242          rtu00242       1.10957         1       242  
     243          rtu00243       0.38478         1       243  
     244          rtu00244       0.03323         1       244  
     245          rtu00245       0.07992         1       245  
     246          rtu00246       0.10979         1       246  
     247          rtu00247       0.03954         1       247  
     248          rtu00248       0.47091         1       248  
     249          rtu00249       0.53811         1       249  
     250          rtu00250       0.16242         1       250  
     251          rtu00251       0.82077         1       251  
     252          rtu00252       0.16929         1       252  
     253          rtu00253       0.79983         1       253  
     254          rtu00254       0.05627         1       254  
     255          rtu00255       0.05046         1       255  
     256          rtu00256       0.15021         1       256  
     257          rtu00257       0.40820         1       257  
     258          rtu00258       3.22791         1       258  
     259          rtu00259       0.05853         1       259  
     260          rtu00260       0.79309         1       260  
     261          rtu00261       0.17495         1       261  
     262          rtu00262       0.04184         1       262  
     263          rtu00263       0.06216         1       263  
     264          rtu00264       0.04212         1       264  
     265          rtu00265       0.07963         1       265  
     266          rtu00266       1.04300         1       266  
     267          rtu00267       1.78133         1       267  
     268          rtu00268       1.16741         1       268  
     269          rtu00269       0.20719         1       269  
     270          rtu00270       0.12995         1       270  
     271          rtu00271       0.55843         1       271  
     272          rtu00272       1.49232         1       272  
     273          rtu00273       0.73362         1       273  
     274          rtu00274       0.56718         1       274  
     275          rtu00275       0.78012         1       275  
     276          rtu00276       0.51312         1       276  
     277          rtu00277       0.24575         1       277  
     278          rtu00278       0.84897         1       278  
     279          rtu00279       2.09947         1       279  
     280          rtu00280       0.77153         1       280  
     281          rtu00281       1.62730         1       281  
     282          rtu00282       2.41960         1       282  
     283          rtu00283       1.28764         1       283  
     284          rtu00284       0.39973         1       284  
     285          rtu00285       0.20352         1       285  
     286          rtu00286       0.30776         1       286  
     287          rtu00287       0.46936         1       287  
     288          rtu00288       3.31074         1       288  
     289          rtu00289       0.05812         1       289  
     290          rtu00290       0.04500         1       290  
     291          rtu00291       0.18919         1       291  
     292          rtu00292       0.15010         1       292  
     293          rtu00293       0.08145         1       293  
     294          rtu00294       0.08688         1       294  
     295          rtu00295       0.15665         1       295  
     296          rtu00296       0.45119         1       296  
     297          rtu00297       0.07012         1       297  
     298          rtu00298       0.11923         1       298  
     299          rtu00299       0.44174         1       299  
     300          rtu00300       0.79386         1       300  
     301          rtu00301       0.12968         1       301  
     302          rtu00302       3.64110         1       302  
     303          rtu00303       4.48983         1       303  
     304          rtu00304       1.52410         1       304  
     305          rtu00305       0.15768         1       305  
     306          rtu00306       0.86757         1       306  
     307          rtu00307       0.05257         1       307  
     308          rtu00308       0.13601         1       308  
     309          rtu00309       0.09634         1       309  
     310          rtu00310       0.02931         1       310  
     311          rtu00311       0.15937         1       311  
     312          rtu00312       0.05618         1       312  
     313          rtu00313       0.58479         1       313  
     314          rtu00314       0.91192         1       314  
     315          rtu00315       0.74714         1       315  
     316          rtu00316       1.89743         1       316  
     317          rtu00317       1.02402         1       317  
     318          rtu00318       0.05776         1       318  
     319          rtu00319       0.26956         1       319  
     320          rtu00320       0.05524         1       320  
     321          rtu00321       0.01660         1       321  
     322          rtu00322       0.10198         1       322  
     323          rtu00323       0.80699         1       323  
     324          rtu00324       0.13953         1       324  
     325          rtu00325       1.12963         1       325  
     326          rtu00326       0.11293         1       326  
     327          rtu00327       0.08801         1       327  
     328          rtu00328       0.01887         1       328  
     329          rtu00329       0.10096         1       329  
     330          rtu00330       0.40486         1       330  
     331          rtu00331       0.48930         1       331  
     332          rtu00332       2.42212         1       332  
     333          rtu00333       0.49801         1       333  
     334          rtu00334       0.11071         1       334  
     335          rtu00335       0.29235         1       335  
     336          rtu00336       0.63016         1       336  
     337          rtu00337       0.09829         1       337  
     338          rtu00338       0.32691         1       338  
     339          rtu00339       0.05071         1       339  
     340          rtu00340       0.65308         1       340  
     341          rtu00341       1.32507         1       341  
     342          rtu00342       2.58896         1       342  
     343          rtu00343       1.42702         1       343  
     344          rtu00344       2.19364         1       344  
     345          rtu00345       2.97794         1       345  
     346          rtu00346       0.25166         1       346  
     347          rtu00347       0.41560         1       347  
     348          rtu00348       1.50245         1       348  
     349          rtu00349       0.60996         1       349  
     350          rtu00350       0.02353         1       350  
     351          rtu00351       3.34521         1       351  
     352          rtu00352       0.33855         1       352  
     353          rtu00353       0.23378         1       353  
     354          rtu00354       0.04172         1       354  
     355          rtu00355       1.33622         1       355  
     356          rtu00356       0.40911         1       356  
     357          rtu00357       0.15864         1       357  
     358          rtu00358       0.07311         1       358  
     359          rtu00359       0.08331         1       359  
     360          rtu00360       0.04215         1       360  
     361          rtu00361       0.13625         1       361  
     362          rtu00362       0.30924         1       362  
     363          rtu00363       1.52696         1       363  
     364          rtu00364       0.65673         1       364  
     365          rtu00365       0.18367         1       365  
     366          rtu00366       0.02033         1       366  
     367          rtu00367       1.17215         1       367  
     368          rtu00368       0.03462         1       368  
     369          rtu00369       0.12408         1       369  
     370          rtu00370       2.50947         1       370  
     371          rtu00371       1.54079         1       371  
     372          rtu00372       0.02042         1       372  
     373          rtu00373       0.22725         1       373  
     374          rtu00374       1.15557         1       374  
     375          rtu00375       1.08219         1       375  
     376          rtu00376       0.43178         1       376  
     377          rtu00377       0.94879         1       377  
     378          rtu00378       0.37970         1       378  
     379          rtu00379       0.08202         1       379  
     380          rtu00380       0.04437         1       380  
     381          rtu00381       0.02708         1       381  
     382          rtu00382       0.08323         1       382  
     383          rtu00383       0.38921         1       383  
     384          rtu00384       0.43770         1       384  
     385          rtu00385       0.10898         1       385  
     386          rtu00386       0.37585         1       386  
     387          rtu00387       0.46718         1       387  
     388          rtu00388       0.13951         1       388  
     389          rtu00389       0.21381         1       389  
     390          rtu00390       0.87131         1       390  
     391          rtu00391       0.66864         1       391  
     392          rtu00392       1.99775         1       392  
     393          rtu00393       0.36606         1       393  
     394          rtu00394       0.24274         1       394  
     395          rtu00395       0.56773         1       395  
     396          rtu00396       0.08674         1       396  
     397          rtu00397       0.16953         1       397  
     398          rtu00398       0.02575         1       398  
     399          rtu00399       1.18182         1       399  
     400          rtu00400       3.57988         1       400  
     401          rtu00401       2.69960         1       401  
     402          rtu00402       1.58600         1       402  
     403          rtu00403       1.44036         1       403  
     404          rtu00404       0.85401         1       404  
     405          rtu00405       0.83083         1       405  
     406          rtu00406       0.54131         1       406  
     407          rtu00407       0.12415         1       407  
     408          rtu00408       0.28385         1       408  
     409          rtu00409       0.12942         1       409  
     410          rtu00410       1.70379         1       410  
     411          rtu00411       0.74784         1       411  
     412          rtu00412       1.18556         1       412  
     413          rtu00413       0.20017         1       413  
     414          rtu00414       0.05105         1       414  
     415          rtu00415       1.51169         1       415  
     416          rtu00416       0.75237         1       416  
     417          rtu00417       0.42090         1       417  
     418          rtu00418       0.56879         1       418  
     419          rtu00419       0.04838         1       419  
     420          rtu00420       0.91716         1       420  
     421          rtu00421       0.03533         1       421  
     422          rtu00422       0.89041         1       422  
     423          rtu00423       1.36615         1       423  
     424          rtu00424       0.56487         1       424  
     425          rtu00425       0.07229         1       425  
     426          rtu00426       0.09826         1       426  
     427          rtu00427       0.02014         1       427  
     428          rtu00428       3.01735         1       428  
     429          rtu00429       0.79270         1       429  
     430          rtu00430       0.85499         1       430  
     431          rtu00431       0.23842         1       431  
     432          rtu00432       0.02353         1       432  
     433          rtu00433       0.02043         1       433  
     434          rtu00434       3.08302         1       434  
     435          rtu00435       0.48436         1       435  
     436          rtu00436       2.03177         1       436  
     437          rtu00437       0.26831         1       437  
     438          rtu00438       2.11781         1       438  
     439          rtu00439       0.12207         1       439  
     440          rtu00440       0.12096         1       440  
     441          rtu00441       0.02803         1       441  
     442          rtu00442       2.34631         1       442  
     443          rtu00443       1.57442         1       443  
     444          rtu00444       0.04790         1       444  
     445          rtu00445       6.04477         1       445  
     446          rtu00446       2.51509         1       446  
     447          rtu00447       0.05513         1       447  
     448          rtu00448       1.01805         1       448  
     449          rtu00449       0.77903         1       449  
     450          rtu00450       0.04872         1       450  
     451          rtu00451       3.01178         1       451  
     452          rtu00452       2.00677         1       452  
     453          rtu00453       0.06070         1       453  
     454          rtu00454       0.05485         1       454  
     455          rtu00455       0.07666         1       455  
     456          rtu00456       0.05860         1       456  
     457          rtu00457       0.97812         1       457  
     458          rtu00458       0.14591         1       458  
     459          rtu00459       0.02112         1       459  
     460          rtu00460       0.19624         1       460  
     461          rtu00461       0.98838         1       461  
     462          rtu00462       0.05662         1       462  
     463          rtu00463       0.91755         1       463  
     464          rtu00464       0.68402         1       464  
     465          rtu00465       0.28363         1       465  
     466          rtu00466       0.02094         1       466  
     467          rtu00467       0.07473         1       467  
     468          rtu00468       0.13463         1       468  
     469          rtu00469       0.07644         1       469  
     470          rtu00470       0.08248         1       470  
     471          rtu00471       1.61214         1       471  
     472          rtu00472       2.68870         1       472  
     473          rtu00473       2.72825         1       473  