object.cnt: file was written by SWATprepR R package 2024-10-10 09:21:53.710845
name                     ls_area    tot_area         obj         hru        lhru         rtu       mfl       aqu       cha       res       rec      exco       dlr       can       pmp       out      lcha     aqu2d       hrd       wro
cs4_project           15005.7449  15005.7449       20674       10240           0       10240         0         1         0        27         0         2         0         0         0         0       164         0         0         0
