reservoir.con: written by SWAT+ editor v2.1.0 on 2024-10-10 09:02 for SWAT+ rev.2.1.4
      id  name                gis_id          area           lat           lon          elev       res               wst       cst      ovfl      rule   out_tot       obj_typ    obj_id       hyd_typ          frac  
       1  res01                    0       1.06202      52.59959      18.69728      84.36721         1     s52601n18707e         0         0         0         0  
       2  res02                    0       1.17672      52.59491      18.73200      93.24697         2     s52599n18737e         0         0         0         0  
       3  res03                    0       0.46592      52.59401      18.73629      96.27706         3     s52599n18737e         0         0         0         0  
       4  res04                    0      15.43931      52.56785      18.69371      87.45406         4       s52566n187e         0         0         0         1           sdc        26           tot       1.00000  
       5  res05                    0       0.02660      52.55681      18.73572      89.67561         5      s52564n1873e         0         0         0         0  
       6  res06                    0       0.87602      52.55648      18.71834      91.45054         6      s52564n1873e         0         0         0         0  
       7  res07                    0       0.51462      52.55698      18.65942      80.47916         7     s52568n18671e         0         0         0         0  
       8  res08                    0       1.59038      52.55294      18.68700      86.57041         8       s52566n187e         0         0         0         0  
       9  res09                    0       0.33880      52.55227      18.66975      80.29278         9     s52568n18671e         0         0         0         0  
      10  res10                    0       0.50457      52.63778      18.63347      90.66549        10     s52643n18626e         0         0         0         0  
      11  res11                    0       0.83721      52.63745      18.60515      92.44738        11     s52646n18597e         0         0         0         0  
      12  res12                    0       0.04305      52.63107      18.67796      89.37106        12     s52639n18685e         0         0         0         0  
      13  res13                    0       0.84122      52.62506      18.61775      90.61363        13     s52626n18623e         0         0         0         0  
      14  res14                    0       0.35452      52.62229      18.64062      90.01091        14     s52624n18652e         0         0         0         0  
      15  res15                    0       0.53756      52.59802      18.74893      94.47136        15     s52599n18737e         0         0         0         0  
      16  res16                    0       0.06533      52.60059      18.67178      87.20900        16     s52604n18678e         0         0         0         0  
      17  res17                    0       0.32354      52.59622      18.72326      93.97482        17     s52599n18737e         0         0         0         0  
      18  res18                    0       0.06171      52.60069      18.59496      91.26266        18       s5261n1859e         0         0         0         0  
      19  res19                    0       0.33674      52.57403      18.69628      87.42251        19       s52566n187e         0         0         0         0  
      20  res20                    0       0.06077      52.56651      18.75904      98.11669        20     s52561n18759e         0         0         0         0  
      21  res21                    0       0.54232      52.55803      18.71659      91.45020        21      s52564n1873e         0         0         0         0  
      22  res22                    0       3.04993      52.57095      18.65684      82.46336        22      s5257n18642e         0         0         0         0  
      23  res23                    0       2.91755      52.55909      18.65255      80.48510        23      s5257n18642e         0         0         0         1           sdc        32           tot       1.00000  
      24  res24                    0       0.40128      52.57569      18.69825      87.42290        24     s52584n18704e         0         0         0         0  
      25  res25                    0       7.94966      52.55732      18.72757      89.67990        25      s52564n1873e         0         0         0         1           sdc         2           tot       1.00000  
      26  res26                    0       0.76232      52.53803      18.74773      91.12822        26     s52544n18755e         0         0         0         0  
      27  res27                    0       9.06373      52.55965      18.69008      85.53278        27       s52566n187e         0         0         0         1           sdc        27           tot       1.00000  
