rout_unit.def: written by SWAT+ editor v2.1.0 on 2024-10-10 09:02 for SWAT+ rev.2.1.4
      id              name  elem_tot  elements  
       1          rtu00001         1         1  
       2          rtu00002         1         2  
       3          rtu00003         1         3  
       4          rtu00004         1         4  
       5          rtu00005         1         5  
       6          rtu00006         1         6  
       7          rtu00007         1         7  
       8          rtu00008         1         8  
       9          rtu00009         1         9  
      10          rtu00010         1        10  
      11          rtu00011         1        11  
      12          rtu00012         1        12  
      13          rtu00013         1        13  
      14          rtu00014         1        14  
      15          rtu00015         1        15  
      16          rtu00016         1        16  
      17          rtu00017         1        17  
      18          rtu00018         1        18  
      19          rtu00019         1        19  
      20          rtu00020         1        20  
      21          rtu00021         1        21  
      22          rtu00022         1        22  
      23          rtu00023         1        23  
      24          rtu00024         1        24  
      25          rtu00025         1        25  
      26          rtu00026         1        26  
      27          rtu00027         1        27  
      28          rtu00028         1        28  
      29          rtu00029         1        29  
      30          rtu00030         1        30  
      31          rtu00031         1        31  
      32          rtu00032         1        32  
      33          rtu00033         1        33  
      34          rtu00034         1        34  
      35          rtu00035         1        35  
      36          rtu00036         1        36  
      37          rtu00037         1        37  
      38          rtu00038         1        38  
      39          rtu00039         1        39  
      40          rtu00040         1        40  
      41          rtu00041         1        41  
      42          rtu00042         1        42  
      43          rtu00043         1        43  
      44          rtu00044         1        44  
      45          rtu00045         1        45  
      46          rtu00046         1        46  
      47          rtu00047         1        47  
      48          rtu00048         1        48  
      49          rtu00049         1        49  
      50          rtu00050         1        50  
      51          rtu00051         1        51  
      52          rtu00052         1        52  
      53          rtu00053         1        53  
      54          rtu00054         1        54  
      55          rtu00055         1        55  
      56          rtu00056         1        56  
      57          rtu00057         1        57  
      58          rtu00058         1        58  
      59          rtu00059         1        59  
      60          rtu00060         1        60  
      61          rtu00061         1        61  
      62          rtu00062         1        62  
      63          rtu00063         1        63  
      64          rtu00064         1        64  
      65          rtu00065         1        65  
      66          rtu00066         1        66  
      67          rtu00067         1        67  
      68          rtu00068         1        68  
      69          rtu00069         1        69  
      70          rtu00070         1        70  
      71          rtu00071         1        71  
      72          rtu00072         1        72  
      73          rtu00073         1        73  
      74          rtu00074         1        74  
      75          rtu00075         1        75  
      76          rtu00076         1        76  
      77          rtu00077         1        77  
      78          rtu00078         1        78  
      79          rtu00079         1        79  
      80          rtu00080         1        80  
      81          rtu00081         1        81  
      82          rtu00082         1        82  
      83          rtu00083         1        83  
      84          rtu00084         1        84  
      85          rtu00085         1        85  
      86          rtu00086         1        86  
      87          rtu00087         1        87  
      88          rtu00088         1        88  
      89          rtu00089         1        89  
      90          rtu00090         1        90  
      91          rtu00091         1        91  
      92          rtu00092         1        92  
      93          rtu00093         1        93  
      94          rtu00094         1        94  
      95          rtu00095         1        95  
      96          rtu00096         1        96  
      97          rtu00097         1        97  
      98          rtu00098         1        98  
      99          rtu00099         1        99  
     100          rtu00100         1       100  
     101          rtu00101         1       101  
     102          rtu00102         1       102  
     103          rtu00103         1       103  
     104          rtu00104         1       104  
     105          rtu00105         1       105  
     106          rtu00106         1       106  
     107          rtu00107         1       107  
     108          rtu00108         1       108  
     109          rtu00109         1       109  
     110          rtu00110         1       110  
     111          rtu00111         1       111  
     112          rtu00112         1       112  
     113          rtu00113         1       113  
     114          rtu00114         1       114  
     115          rtu00115         1       115  
     116          rtu00116         1       116  
     117          rtu00117         1       117  
     118          rtu00118         1       118  
     119          rtu00119         1       119  
     120          rtu00120         1       120  
     121          rtu00121         1       121  
     122          rtu00122         1       122  
     123          rtu00123         1       123  
     124          rtu00124         1       124  
     125          rtu00125         1       125  
     126          rtu00126         1       126  
     127          rtu00127         1       127  
     128          rtu00128         1       128  
     129          rtu00129         1       129  
     130          rtu00130         1       130  
     131          rtu00131         1       131  
     132          rtu00132         1       132  
     133          rtu00133         1       133  
     134          rtu00134         1       134  
     135          rtu00135         1       135  
     136          rtu00136         1       136  
     137          rtu00137         1       137  
     138          rtu00138         1       138  
     139          rtu00139         1       139  
     140          rtu00140         1       140  
     141          rtu00141         1       141  
     142          rtu00142         1       142  
     143          rtu00143         1       143  
     144          rtu00144         1       144  
     145          rtu00145         1       145  
     146          rtu00146         1       146  
     147          rtu00147         1       147  
     148          rtu00148         1       148  
     149          rtu00149         1       149  
     150          rtu00150         1       150  
     151          rtu00151         1       151  
     152          rtu00152         1       152  
     153          rtu00153         1       153  
     154          rtu00154         1       154  
     155          rtu00155         1       155  
     156          rtu00156         1       156  
     157          rtu00157         1       157  
     158          rtu00158         1       158  
     159          rtu00159         1       159  
     160          rtu00160         1       160  
     161          rtu00161         1       161  
     162          rtu00162         1       162  
     163          rtu00163         1       163  
     164          rtu00164         1       164  
     165          rtu00165         1       165  
     166          rtu00166         1       166  
     167          rtu00167         1       167  
     168          rtu00168         1       168  
     169          rtu00169         1       169  
     170          rtu00170         1       170  
     171          rtu00171         1       171  
     172          rtu00172         1       172  
     173          rtu00173         1       173  
     174          rtu00174         1       174  
     175          rtu00175         1       175  
     176          rtu00176         1       176  
     177          rtu00177         1       177  
     178          rtu00178         1       178  
     179          rtu00179         1       179  
     180          rtu00180         1       180  
     181          rtu00181         1       181  
     182          rtu00182         1       182  
     183          rtu00183         1       183  
     184          rtu00184         1       184  
     185          rtu00185         1       185  
     186          rtu00186         1       186  
     187          rtu00187         1       187  
     188          rtu00188         1       188  
     189          rtu00189         1       189  
     190          rtu00190         1       190  
     191          rtu00191         1       191  
     192          rtu00192         1       192  
     193          rtu00193         1       193  
     194          rtu00194         1       194  
     195          rtu00195         1       195  
     196          rtu00196         1       196  
     197          rtu00197         1       197  
     198          rtu00198         1       198  
     199          rtu00199         1       199  
     200          rtu00200         1       200  
     201          rtu00201         1       201  
     202          rtu00202         1       202  
     203          rtu00203         1       203  
     204          rtu00204         1       204  
     205          rtu00205         1       205  
     206          rtu00206         1       206  
     207          rtu00207         1       207  
     208          rtu00208         1       208  
     209          rtu00209         1       209  
     210          rtu00210         1       210  
     211          rtu00211         1       211  
     212          rtu00212         1       212  
     213          rtu00213         1       213  
     214          rtu00214         1       214  
     215          rtu00215         1       215  
     216          rtu00216         1       216  
     217          rtu00217         1       217  
     218          rtu00218         1       218  
     219          rtu00219         1       219  
     220          rtu00220         1       220  
     221          rtu00221         1       221  
     222          rtu00222         1       222  
     223          rtu00223         1       223  
     224          rtu00224         1       224  
     225          rtu00225         1       225  
     226          rtu00226         1       226  
     227          rtu00227         1       227  
     228          rtu00228         1       228  
     229          rtu00229         1       229  
     230          rtu00230         1       230  
     231          rtu00231         1       231  
     232          rtu00232         1       232  
     233          rtu00233         1       233  
     234          rtu00234         1       234  
     235          rtu00235         1       235  
     236          rtu00236         1       236  
     237          rtu00237         1       237  
     238          rtu00238         1       238  
     239          rtu00239         1       239  
     240          rtu00240         1       240  
     241          rtu00241         1       241  
     242          rtu00242         1       242  
     243          rtu00243         1       243  
     244          rtu00244         1       244  
     245          rtu00245         1       245  
     246          rtu00246         1       246  
     247          rtu00247         1       247  
     248          rtu00248         1       248  
     249          rtu00249         1       249  
     250          rtu00250         1       250  
     251          rtu00251         1       251  
     252          rtu00252         1       252  
     253          rtu00253         1       253  
     254          rtu00254         1       254  
     255          rtu00255         1       255  
     256          rtu00256         1       256  
     257          rtu00257         1       257  
     258          rtu00258         1       258  
     259          rtu00259         1       259  
     260          rtu00260         1       260  
     261          rtu00261         1       261  
     262          rtu00262         1       262  
     263          rtu00263         1       263  
     264          rtu00264         1       264  
     265          rtu00265         1       265  
     266          rtu00266         1       266  
     267          rtu00267         1       267  
     268          rtu00268         1       268  
     269          rtu00269         1       269  
     270          rtu00270         1       270  
     271          rtu00271         1       271  
     272          rtu00272         1       272  
     273          rtu00273         1       273  
     274          rtu00274         1       274  
     275          rtu00275         1       275  
     276          rtu00276         1       276  
     277          rtu00277         1       277  
     278          rtu00278         1       278  
     279          rtu00279         1       279  
     280          rtu00280         1       280  
     281          rtu00281         1       281  
     282          rtu00282         1       282  
     283          rtu00283         1       283  
     284          rtu00284         1       284  
     285          rtu00285         1       285  
     286          rtu00286         1       286  
     287          rtu00287         1       287  
     288          rtu00288         1       288  
     289          rtu00289         1       289  
     290          rtu00290         1       290  
     291          rtu00291         1       291  
     292          rtu00292         1       292  
     293          rtu00293         1       293  
     294          rtu00294         1       294  
     295          rtu00295         1       295  
     296          rtu00296         1       296  
     297          rtu00297         1       297  
     298          rtu00298         1       298  
     299          rtu00299         1       299  
     300          rtu00300         1       300  
     301          rtu00301         1       301  
     302          rtu00302         1       302  
     303          rtu00303         1       303  
     304          rtu00304         1       304  
     305          rtu00305         1       305  
     306          rtu00306         1       306  
     307          rtu00307         1       307  
     308          rtu00308         1       308  
     309          rtu00309         1       309  
     310          rtu00310         1       310  
     311          rtu00311         1       311  
     312          rtu00312         1       312  
     313          rtu00313         1       313  
     314          rtu00314         1       314  
     315          rtu00315         1       315  
     316          rtu00316         1       316  
     317          rtu00317         1       317  
     318          rtu00318         1       318  
     319          rtu00319         1       319  
     320          rtu00320         1       320  
     321          rtu00321         1       321  
     322          rtu00322         1       322  
     323          rtu00323         1       323  
     324          rtu00324         1       324  
     325          rtu00325         1       325  
     326          rtu00326         1       326  
     327          rtu00327         1       327  
     328          rtu00328         1       328  
     329          rtu00329         1       329  
     330          rtu00330         1       330  
     331          rtu00331         1       331  
     332          rtu00332         1       332  
     333          rtu00333         1       333  
     334          rtu00334         1       334  
     335          rtu00335         1       335  
     336          rtu00336         1       336  
     337          rtu00337         1       337  
     338          rtu00338         1       338  
     339          rtu00339         1       339  
     340          rtu00340         1       340  
     341          rtu00341         1       341  
     342          rtu00342         1       342  
     343          rtu00343         1       343  
     344          rtu00344         1       344  
     345          rtu00345         1       345  
     346          rtu00346         1       346  
     347          rtu00347         1       347  
     348          rtu00348         1       348  
     349          rtu00349         1       349  
     350          rtu00350         1       350  
     351          rtu00351         1       351  
     352          rtu00352         1       352  
     353          rtu00353         1       353  
     354          rtu00354         1       354  
     355          rtu00355         1       355  
     356          rtu00356         1       356  
     357          rtu00357         1       357  
     358          rtu00358         1       358  
     359          rtu00359         1       359  
     360          rtu00360         1       360  
     361          rtu00361         1       361  
     362          rtu00362         1       362  
     363          rtu00363         1       363  
     364          rtu00364         1       364  
     365          rtu00365         1       365  
     366          rtu00366         1       366  
     367          rtu00367         1       367  
     368          rtu00368         1       368  
     369          rtu00369         1       369  
     370          rtu00370         1       370  
     371          rtu00371         1       371  
     372          rtu00372         1       372  
     373          rtu00373         1       373  
     374          rtu00374         1       374  
     375          rtu00375         1       375  
     376          rtu00376         1       376  
     377          rtu00377         1       377  
     378          rtu00378         1       378  
     379          rtu00379         1       379  
     380          rtu00380         1       380  
     381          rtu00381         1       381  
     382          rtu00382         1       382  
     383          rtu00383         1       383  
     384          rtu00384         1       384  
     385          rtu00385         1       385  
     386          rtu00386         1       386  
     387          rtu00387         1       387  
     388          rtu00388         1       388  
     389          rtu00389         1       389  
     390          rtu00390         1       390  
     391          rtu00391         1       391  
     392          rtu00392         1       392  
     393          rtu00393         1       393  
     394          rtu00394         1       394  
     395          rtu00395         1       395  
     396          rtu00396         1       396  
     397          rtu00397         1       397  
     398          rtu00398         1       398  
     399          rtu00399         1       399  
     400          rtu00400         1       400  
     401          rtu00401         1       401  
     402          rtu00402         1       402  
     403          rtu00403         1       403  
     404          rtu00404         1       404  
     405          rtu00405         1       405  
     406          rtu00406         1       406  
     407          rtu00407         1       407  
     408          rtu00408         1       408  
     409          rtu00409         1       409  
     410          rtu00410         1       410  
     411          rtu00411         1       411  
     412          rtu00412         1       412  
     413          rtu00413         1       413  
     414          rtu00414         1       414  
     415          rtu00415         1       415  
     416          rtu00416         1       416  
     417          rtu00417         1       417  
     418          rtu00418         1       418  
     419          rtu00419         1       419  
     420          rtu00420         1       420  
     421          rtu00421         1       421  
     422          rtu00422         1       422  
     423          rtu00423         1       423  
     424          rtu00424         1       424  
     425          rtu00425         1       425  
     426          rtu00426         1       426  
     427          rtu00427         1       427  
     428          rtu00428         1       428  
     429          rtu00429         1       429  
     430          rtu00430         1       430  
     431          rtu00431         1       431  
     432          rtu00432         1       432  
     433          rtu00433         1       433  
     434          rtu00434         1       434  
     435          rtu00435         1       435  
     436          rtu00436         1       436  
     437          rtu00437         1       437  
     438          rtu00438         1       438  
     439          rtu00439         1       439  
     440          rtu00440         1       440  
     441          rtu00441         1       441  
     442          rtu00442         1       442  
     443          rtu00443         1       443  
     444          rtu00444         1       444  
     445          rtu00445         1       445  
     446          rtu00446         1       446  
     447          rtu00447         1       447  
     448          rtu00448         1       448  
     449          rtu00449         1       449  
     450          rtu00450         1       450  
     451          rtu00451         1       451  
     452          rtu00452         1       452  
     453          rtu00453         1       453  
     454          rtu00454         1       454  
     455          rtu00455         1       455  
     456          rtu00456         1       456  
     457          rtu00457         1       457  
     458          rtu00458         1       458  
     459          rtu00459         1       459  
     460          rtu00460         1       460  
     461          rtu00461         1       461  
     462          rtu00462         1       462  
     463          rtu00463         1       463  
     464          rtu00464         1       464  
     465          rtu00465         1       465  
     466          rtu00466         1       466  
     467          rtu00467         1       467  
     468          rtu00468         1       468  
     469          rtu00469         1       469  
     470          rtu00470         1       470  
     471          rtu00471         1       471  
     472          rtu00472         1       472  
     473          rtu00473         1       473  
     474          rtu00474         1       474  
     475          rtu00475         1       475  
     476          rtu00476         1       476  
     477          rtu00477         1       477  
     478          rtu00478         1       478  
     479          rtu00479         1       479  
     480          rtu00480         1       480  
     481          rtu00481         1       481  
     482          rtu00482         1       482  
     483          rtu00483         1       483  
     484          rtu00484         1       484  
     485          rtu00485         1       485  
     486          rtu00486         1       486  
     487          rtu00487         1       487  
     488          rtu00488         1       488  
     489          rtu00489         1       489  
     490          rtu00490         1       490  
     491          rtu00491         1       491  
     492          rtu00492         1       492  
     493          rtu00493         1       493  
     494          rtu00494         1       494  
     495          rtu00495         1       495  
     496          rtu00496         1       496  
     497          rtu00497         1       497  
     498          rtu00498         1       498  
     499          rtu00499         1       499  
     500          rtu00500         1       500  
     501          rtu00501         1       501  
     502          rtu00502         1       502  
     503          rtu00503         1       503  
     504          rtu00504         1       504  
     505          rtu00505         1       505  
     506          rtu00506         1       506  
     507          rtu00507         1       507  
     508          rtu00508         1       508  
     509          rtu00509         1       509  
     510          rtu00510         1       510  
     511          rtu00511         1       511  
     512          rtu00512         1       512  
     513          rtu00513         1       513  
     514          rtu00514         1       514  
     515          rtu00515         1       515  
     516          rtu00516         1       516  
     517          rtu00517         1       517  
     518          rtu00518         1       518  
     519          rtu00519         1       519  
     520          rtu00520         1       520  
     521          rtu00521         1       521  
     522          rtu00522         1       522  
     523          rtu00523         1       523  
     524          rtu00524         1       524  
     525          rtu00525         1       525  
     526          rtu00526         1       526  
     527          rtu00527         1       527  
     528          rtu00528         1       528  
     529          rtu00529         1       529  
     530          rtu00530         1       530  
     531          rtu00531         1       531  
     532          rtu00532         1       532  
     533          rtu00533         1       533  
     534          rtu00534         1       534  
     535          rtu00535         1       535  
     536          rtu00536         1       536  
     537          rtu00537         1       537  
     538          rtu00538         1       538  
     539          rtu00539         1       539  
     540          rtu00540         1       540  
     541          rtu00541         1       541  
     542          rtu00542         1       542  
     543          rtu00543         1       543  
     544          rtu00544         1       544  
     545          rtu00545         1       545  
     546          rtu00546         1       546  
     547          rtu00547         1       547  
     548          rtu00548         1       548  
     549          rtu00549         1       549  
     550          rtu00550         1       550  
     551          rtu00551         1       551  
     552          rtu00552         1       552  
     553          rtu00553         1       553  
     554          rtu00554         1       554  
     555          rtu00555         1       555  
     556          rtu00556         1       556  
     557          rtu00557         1       557  
     558          rtu00558         1       558  
     559          rtu00559         1       559  
     560          rtu00560         1       560  
     561          rtu00561         1       561  
     562          rtu00562         1       562  
     563          rtu00563         1       563  
     564          rtu00564         1       564  
     565          rtu00565         1       565  
     566          rtu00566         1       566  
     567          rtu00567         1       567  
     568          rtu00568         1       568  
     569          rtu00569         1       569  
     570          rtu00570         1       570  
     571          rtu00571         1       571  
     572          rtu00572         1       572  
     573          rtu00573         1       573  
     574          rtu00574         1       574  
     575          rtu00575         1       575  
     576          rtu00576         1       576  
     577          rtu00577         1       577  
     578          rtu00578         1       578  
     579          rtu00579         1       579  
     580          rtu00580         1       580  
     581          rtu00581         1       581  
     582          rtu00582         1       582  
     583          rtu00583         1       583  
     584          rtu00584         1       584  
     585          rtu00585         1       585  
     586          rtu00586         1       586  
     587          rtu00587         1       587  
     588          rtu00588         1       588  
     589          rtu00589         1       589  
     590          rtu00590         1       590  
     591          rtu00591         1       591  
     592          rtu00592         1       592  
     593          rtu00593         1       593  
     594          rtu00594         1       594  
     595          rtu00595         1       595  
     596          rtu00596         1       596  
     597          rtu00597         1       597  
     598          rtu00598         1       598  
     599          rtu00599         1       599  
     600          rtu00600         1       600  
     601          rtu00601         1       601  
     602          rtu00602         1       602  
     603          rtu00603         1       603  
     604          rtu00604         1       604  
     605          rtu00605         1       605  
     606          rtu00606         1       606  
     607          rtu00607         1       607  
     608          rtu00608         1       608  
     609          rtu00609         1       609  