rout_unit.ele: written by SWAT+ editor v2.1.0 on 2024-10-10 09:02 for SWAT+ rev.2.1.4
      id  name                   obj_typ    obj_id          frac               dlr  
       1  hru00001                   hru         1     1.0000E+0                 0  
       2  hru00002                   hru         2     1.0000E+0                 0  
       3  hru00003                   hru         3     1.0000E+0                 0  
       4  hru00004                   hru         4     1.0000E+0                 0  
       5  hru00005                   hru         5     1.0000E+0                 0  
       6  hru00006                   hru         6     1.0000E+0                 0  
       7  hru00007                   hru         7     1.0000E+0                 0  
       8  hru00008                   hru         8     1.0000E+0                 0  
       9  hru00009                   hru         9     1.0000E+0                 0  
      10  hru00010                   hru        10     1.0000E+0                 0  
      11  hru00011                   hru        11     1.0000E+0                 0  
      12  hru00012                   hru        12     1.0000E+0                 0  
      13  hru00013                   hru        13     1.0000E+0                 0  
      14  hru00014                   hru        14     1.0000E+0                 0  
      15  hru00015                   hru        15     1.0000E+0                 0  
      16  hru00016                   hru        16     1.0000E+0                 0  
      17  hru00017                   hru        17     1.0000E+0                 0  
      18  hru00018                   hru        18     1.0000E+0                 0  
      19  hru00019                   hru        19     1.0000E+0                 0  
      20  hru00020                   hru        20     1.0000E+0                 0  
      21  hru00021                   hru        21     1.0000E+0                 0  
      22  hru00022                   hru        22     1.0000E+0                 0  
      23  hru00023                   hru        23     1.0000E+0                 0  
      24  hru00024                   hru        24     1.0000E+0                 0  
      25  hru00025                   hru        25     1.0000E+0                 0  
      26  hru00026                   hru        26     1.0000E+0                 0  
      27  hru00027                   hru        27     1.0000E+0                 0  
      28  hru00028                   hru        28     1.0000E+0                 0  
      29  hru00029                   hru        29     1.0000E+0                 0  
      30  hru00030                   hru        30     1.0000E+0                 0  
      31  hru00031                   hru        31     1.0000E+0                 0  
      32  hru00032                   hru        32     1.0000E+0                 0  
      33  hru00033                   hru        33     1.0000E+0                 0  
      34  hru00034                   hru        34     1.0000E+0                 0  
      35  hru00035                   hru        35     1.0000E+0                 0  
      36  hru00036                   hru        36     1.0000E+0                 0  
      37  hru00037                   hru        37     1.0000E+0                 0  
      38  hru00038                   hru        38     1.0000E+0                 0  
      39  hru00039                   hru        39     1.0000E+0                 0  
      40  hru00040                   hru        40     1.0000E+0                 0  
      41  hru00041                   hru        41     1.0000E+0                 0  
      42  hru00042                   hru        42     1.0000E+0                 0  
      43  hru00043                   hru        43     1.0000E+0                 0  
      44  hru00044                   hru        44     1.0000E+0                 0  
      45  hru00045                   hru        45     1.0000E+0                 0  
      46  hru00046                   hru        46     1.0000E+0                 0  
      47  hru00047                   hru        47     1.0000E+0                 0  
      48  hru00048                   hru        48     1.0000E+0                 0  
      49  hru00049                   hru        49     1.0000E+0                 0  
      50  hru00050                   hru        50     1.0000E+0                 0  
      51  hru00051                   hru        51     1.0000E+0                 0  
      52  hru00052                   hru        52     1.0000E+0                 0  
      53  hru00053                   hru        53     1.0000E+0                 0  
      54  hru00054                   hru        54     1.0000E+0                 0  
      55  hru00055                   hru        55     1.0000E+0                 0  
      56  hru00056                   hru        56     1.0000E+0                 0  
      57  hru00057                   hru        57     1.0000E+0                 0  
      58  hru00058                   hru        58     1.0000E+0                 0  
      59  hru00059                   hru        59     1.0000E+0                 0  
      60  hru00060                   hru        60     1.0000E+0                 0  
      61  hru00061                   hru        61     1.0000E+0                 0  
      62  hru00062                   hru        62     1.0000E+0                 0  
      63  hru00063                   hru        63     1.0000E+0                 0  
      64  hru00064                   hru        64     1.0000E+0                 0  
      65  hru00065                   hru        65     1.0000E+0                 0  
      66  hru00066                   hru        66     1.0000E+0                 0  
      67  hru00067                   hru        67     1.0000E+0                 0  
      68  hru00068                   hru        68     1.0000E+0                 0  
      69  hru00069                   hru        69     1.0000E+0                 0  
      70  hru00070                   hru        70     1.0000E+0                 0  
      71  hru00071                   hru        71     1.0000E+0                 0  
      72  hru00072                   hru        72     1.0000E+0                 0  
      73  hru00073                   hru        73     1.0000E+0                 0  
      74  hru00074                   hru        74     1.0000E+0                 0  
      75  hru00075                   hru        75     1.0000E+0                 0  
      76  hru00076                   hru        76     1.0000E+0                 0  
      77  hru00077                   hru        77     1.0000E+0                 0  
      78  hru00078                   hru        78     1.0000E+0                 0  
      79  hru00079                   hru        79     1.0000E+0                 0  
      80  hru00080                   hru        80     1.0000E+0                 0  
      81  hru00081                   hru        81     1.0000E+0                 0  
      82  hru00082                   hru        82     1.0000E+0                 0  
      83  hru00083                   hru        83     1.0000E+0                 0  
      84  hru00084                   hru        84     1.0000E+0                 0  
      85  hru00085                   hru        85     1.0000E+0                 0  
      86  hru00086                   hru        86     1.0000E+0                 0  
      87  hru00087                   hru        87     1.0000E+0                 0  
      88  hru00088                   hru        88     1.0000E+0                 0  
      89  hru00089                   hru        89     1.0000E+0                 0  
      90  hru00090                   hru        90     1.0000E+0                 0  
      91  hru00091                   hru        91     1.0000E+0                 0  
      92  hru00092                   hru        92     1.0000E+0                 0  
      93  hru00093                   hru        93     1.0000E+0                 0  
      94  hru00094                   hru        94     1.0000E+0                 0  
      95  hru00095                   hru        95     1.0000E+0                 0  
      96  hru00096                   hru        96     1.0000E+0                 0  
      97  hru00097                   hru        97     1.0000E+0                 0  
      98  hru00098                   hru        98     1.0000E+0                 0  
      99  hru00099                   hru        99     1.0000E+0                 0  
     100  hru00100                   hru       100     1.0000E+0                 0  
     101  hru00101                   hru       101     1.0000E+0                 0  
     102  hru00102                   hru       102     1.0000E+0                 0  
     103  hru00103                   hru       103     1.0000E+0                 0  
     104  hru00104                   hru       104     1.0000E+0                 0  
     105  hru00105                   hru       105     1.0000E+0                 0  
     106  hru00106                   hru       106     1.0000E+0                 0  
     107  hru00107                   hru       107     1.0000E+0                 0  
     108  hru00108                   hru       108     1.0000E+0                 0  
     109  hru00109                   hru       109     1.0000E+0                 0  
     110  hru00110                   hru       110     1.0000E+0                 0  
     111  hru00111                   hru       111     1.0000E+0                 0  
     112  hru00112                   hru       112     1.0000E+0                 0  
     113  hru00113                   hru       113     1.0000E+0                 0  
     114  hru00114                   hru       114     1.0000E+0                 0  
     115  hru00115                   hru       115     1.0000E+0                 0  
     116  hru00116                   hru       116     1.0000E+0                 0  
     117  hru00117                   hru       117     1.0000E+0                 0  
     118  hru00118                   hru       118     1.0000E+0                 0  
     119  hru00119                   hru       119     1.0000E+0                 0  
     120  hru00120                   hru       120     1.0000E+0                 0  
     121  hru00121                   hru       121     1.0000E+0                 0  
     122  hru00122                   hru       122     1.0000E+0                 0  
     123  hru00123                   hru       123     1.0000E+0                 0  
     124  hru00124                   hru       124     1.0000E+0                 0  
     125  hru00125                   hru       125     1.0000E+0                 0  
     126  hru00126                   hru       126     1.0000E+0                 0  
     127  hru00127                   hru       127     1.0000E+0                 0  
     128  hru00128                   hru       128     1.0000E+0                 0  
     129  hru00129                   hru       129     1.0000E+0                 0  
     130  hru00130                   hru       130     1.0000E+0                 0  
     131  hru00131                   hru       131     1.0000E+0                 0  
     132  hru00132                   hru       132     1.0000E+0                 0  
     133  hru00133                   hru       133     1.0000E+0                 0  
     134  hru00134                   hru       134     1.0000E+0                 0  
     135  hru00135                   hru       135     1.0000E+0                 0  
     136  hru00136                   hru       136     1.0000E+0                 0  
     137  hru00137                   hru       137     1.0000E+0                 0  
     138  hru00138                   hru       138     1.0000E+0                 0  
     139  hru00139                   hru       139     1.0000E+0                 0  
     140  hru00140                   hru       140     1.0000E+0                 0  
     141  hru00141                   hru       141     1.0000E+0                 0  
     142  hru00142                   hru       142     1.0000E+0                 0  
     143  hru00143                   hru       143     1.0000E+0                 0  
     144  hru00144                   hru       144     1.0000E+0                 0  
     145  hru00145                   hru       145     1.0000E+0                 0  
     146  hru00146                   hru       146     1.0000E+0                 0  
     147  hru00147                   hru       147     1.0000E+0                 0  
     148  hru00148                   hru       148     1.0000E+0                 0  
     149  hru00149                   hru       149     1.0000E+0                 0  
     150  hru00150                   hru       150     1.0000E+0                 0  
     151  hru00151                   hru       151     1.0000E+0                 0  
     152  hru00152                   hru       152     1.0000E+0                 0  
     153  hru00153                   hru       153     1.0000E+0                 0  
     154  hru00154                   hru       154     1.0000E+0                 0  
     155  hru00155                   hru       155     1.0000E+0                 0  
     156  hru00156                   hru       156     1.0000E+0                 0  
     157  hru00157                   hru       157     1.0000E+0                 0  
     158  hru00158                   hru       158     1.0000E+0                 0  
     159  hru00159                   hru       159     1.0000E+0                 0  
     160  hru00160                   hru       160     1.0000E+0                 0  
     161  hru00161                   hru       161     1.0000E+0                 0  
     162  hru00162                   hru       162     1.0000E+0                 0  
     163  hru00163                   hru       163     1.0000E+0                 0  
     164  hru00164                   hru       164     1.0000E+0                 0  
     165  hru00165                   hru       165     1.0000E+0                 0  
     166  hru00166                   hru       166     1.0000E+0                 0  
     167  hru00167                   hru       167     1.0000E+0                 0  
     168  hru00168                   hru       168     1.0000E+0                 0  
     169  hru00169                   hru       169     1.0000E+0                 0  
     170  hru00170                   hru       170     1.0000E+0                 0  
     171  hru00171                   hru       171     1.0000E+0                 0  
     172  hru00172                   hru       172     1.0000E+0                 0  
     173  hru00173                   hru       173     1.0000E+0                 0  
     174  hru00174                   hru       174     1.0000E+0                 0  
     175  hru00175                   hru       175     1.0000E+0                 0  
     176  hru00176                   hru       176     1.0000E+0                 0  
     177  hru00177                   hru       177     1.0000E+0                 0  
     178  hru00178                   hru       178     1.0000E+0                 0  
     179  hru00179                   hru       179     1.0000E+0                 0  
     180  hru00180                   hru       180     1.0000E+0                 0  
     181  hru00181                   hru       181     1.0000E+0                 0  
     182  hru00182                   hru       182     1.0000E+0                 0  
     183  hru00183                   hru       183     1.0000E+0                 0  
     184  hru00184                   hru       184     1.0000E+0                 0  
     185  hru00185                   hru       185     1.0000E+0                 0  
     186  hru00186                   hru       186     1.0000E+0                 0  
     187  hru00187                   hru       187     1.0000E+0                 0  
     188  hru00188                   hru       188     1.0000E+0                 0  
     189  hru00189                   hru       189     1.0000E+0                 0  
     190  hru00190                   hru       190     1.0000E+0                 0  
     191  hru00191                   hru       191     1.0000E+0                 0  
     192  hru00192                   hru       192     1.0000E+0                 0  
     193  hru00193                   hru       193     1.0000E+0                 0  
     194  hru00194                   hru       194     1.0000E+0                 0  
     195  hru00195                   hru       195     1.0000E+0                 0  
     196  hru00196                   hru       196     1.0000E+0                 0  
     197  hru00197                   hru       197     1.0000E+0                 0  
     198  hru00198                   hru       198     1.0000E+0                 0  
     199  hru00199                   hru       199     1.0000E+0                 0  
     200  hru00200                   hru       200     1.0000E+0                 0  
     201  hru00201                   hru       201     1.0000E+0                 0  
     202  hru00202                   hru       202     1.0000E+0                 0  
     203  hru00203                   hru       203     1.0000E+0                 0  
     204  hru00204                   hru       204     1.0000E+0                 0  
     205  hru00205                   hru       205     1.0000E+0                 0  
     206  hru00206                   hru       206     1.0000E+0                 0  
     207  hru00207                   hru       207     1.0000E+0                 0  
     208  hru00208                   hru       208     1.0000E+0                 0  
     209  hru00209                   hru       209     1.0000E+0                 0  
     210  hru00210                   hru       210     1.0000E+0                 0  
     211  hru00211                   hru       211     1.0000E+0                 0  
     212  hru00212                   hru       212     1.0000E+0                 0  
     213  hru00213                   hru       213     1.0000E+0                 0  
     214  hru00214                   hru       214     1.0000E+0                 0  
     215  hru00215                   hru       215     1.0000E+0                 0  
     216  hru00216                   hru       216     1.0000E+0                 0  
     217  hru00217                   hru       217     1.0000E+0                 0  
     218  hru00218                   hru       218     1.0000E+0                 0  
     219  hru00219                   hru       219     1.0000E+0                 0  
     220  hru00220                   hru       220     1.0000E+0                 0  
     221  hru00221                   hru       221     1.0000E+0                 0  
     222  hru00222                   hru       222     1.0000E+0                 0  
     223  hru00223                   hru       223     1.0000E+0                 0  
     224  hru00224                   hru       224     1.0000E+0                 0  
     225  hru00225                   hru       225     1.0000E+0                 0  
     226  hru00226                   hru       226     1.0000E+0                 0  
     227  hru00227                   hru       227     1.0000E+0                 0  
     228  hru00228                   hru       228     1.0000E+0                 0  
     229  hru00229                   hru       229     1.0000E+0                 0  
     230  hru00230                   hru       230     1.0000E+0                 0  
     231  hru00231                   hru       231     1.0000E+0                 0  
     232  hru00232                   hru       232     1.0000E+0                 0  
     233  hru00233                   hru       233     1.0000E+0                 0  
     234  hru00234                   hru       234     1.0000E+0                 0  
     235  hru00235                   hru       235     1.0000E+0                 0  
     236  hru00236                   hru       236     1.0000E+0                 0  
     237  hru00237                   hru       237     1.0000E+0                 0  
     238  hru00238                   hru       238     1.0000E+0                 0  
     239  hru00239                   hru       239     1.0000E+0                 0  
     240  hru00240                   hru       240     1.0000E+0                 0  
     241  hru00241                   hru       241     1.0000E+0                 0  
     242  hru00242                   hru       242     1.0000E+0                 0  
     243  hru00243                   hru       243     1.0000E+0                 0  
     244  hru00244                   hru       244     1.0000E+0                 0  
     245  hru00245                   hru       245     1.0000E+0                 0  
     246  hru00246                   hru       246     1.0000E+0                 0  
     247  hru00247                   hru       247     1.0000E+0                 0  
     248  hru00248                   hru       248     1.0000E+0                 0  
     249  hru00249                   hru       249     1.0000E+0                 0  
     250  hru00250                   hru       250     1.0000E+0                 0  
     251  hru00251                   hru       251     1.0000E+0                 0  
     252  hru00252                   hru       252     1.0000E+0                 0  
     253  hru00253                   hru       253     1.0000E+0                 0  
     254  hru00254                   hru       254     1.0000E+0                 0  
     255  hru00255                   hru       255     1.0000E+0                 0  
     256  hru00256                   hru       256     1.0000E+0                 0  
     257  hru00257                   hru       257     1.0000E+0                 0  
     258  hru00258                   hru       258     1.0000E+0                 0  
     259  hru00259                   hru       259     1.0000E+0                 0  
     260  hru00260                   hru       260     1.0000E+0                 0  
     261  hru00261                   hru       261     1.0000E+0                 0  
     262  hru00262                   hru       262     1.0000E+0                 0  
     263  hru00263                   hru       263     1.0000E+0                 0  
     264  hru00264                   hru       264     1.0000E+0                 0  
     265  hru00265                   hru       265     1.0000E+0                 0  
     266  hru00266                   hru       266     1.0000E+0                 0  
     267  hru00267                   hru       267     1.0000E+0                 0  
     268  hru00268                   hru       268     1.0000E+0                 0  
     269  hru00269                   hru       269     1.0000E+0                 0  
     270  hru00270                   hru       270     1.0000E+0                 0  
     271  hru00271                   hru       271     1.0000E+0                 0  
     272  hru00272                   hru       272     1.0000E+0                 0  
     273  hru00273                   hru       273     1.0000E+0                 0  
     274  hru00274                   hru       274     1.0000E+0                 0  
     275  hru00275                   hru       275     1.0000E+0                 0  
     276  hru00276                   hru       276     1.0000E+0                 0  
     277  hru00277                   hru       277     1.0000E+0                 0  
     278  hru00278                   hru       278     1.0000E+0                 0  
     279  hru00279                   hru       279     1.0000E+0                 0  
     280  hru00280                   hru       280     1.0000E+0                 0  
     281  hru00281                   hru       281     1.0000E+0                 0  
     282  hru00282                   hru       282     1.0000E+0                 0  
     283  hru00283                   hru       283     1.0000E+0                 0  
     284  hru00284                   hru       284     1.0000E+0                 0  
     285  hru00285                   hru       285     1.0000E+0                 0  
     286  hru00286                   hru       286     1.0000E+0                 0  
     287  hru00287                   hru       287     1.0000E+0                 0  
     288  hru00288                   hru       288     1.0000E+0                 0  
     289  hru00289                   hru       289     1.0000E+0                 0  
     290  hru00290                   hru       290     1.0000E+0                 0  
     291  hru00291                   hru       291     1.0000E+0                 0  
     292  hru00292                   hru       292     1.0000E+0                 0  
     293  hru00293                   hru       293     1.0000E+0                 0  
     294  hru00294                   hru       294     1.0000E+0                 0  
     295  hru00295                   hru       295     1.0000E+0                 0  
     296  hru00296                   hru       296     1.0000E+0                 0  
     297  hru00297                   hru       297     1.0000E+0                 0  
     298  hru00298                   hru       298     1.0000E+0                 0  
     299  hru00299                   hru       299     1.0000E+0                 0  
     300  hru00300                   hru       300     1.0000E+0                 0  
     301  hru00301                   hru       301     1.0000E+0                 0  
     302  hru00302                   hru       302     1.0000E+0                 0  
     303  hru00303                   hru       303     1.0000E+0                 0  
     304  hru00304                   hru       304     1.0000E+0                 0  
     305  hru00305                   hru       305     1.0000E+0                 0  
     306  hru00306                   hru       306     1.0000E+0                 0  
     307  hru00307                   hru       307     1.0000E+0                 0  
     308  hru00308                   hru       308     1.0000E+0                 0  
     309  hru00309                   hru       309     1.0000E+0                 0  
     310  hru00310                   hru       310     1.0000E+0                 0  
     311  hru00311                   hru       311     1.0000E+0                 0  
     312  hru00312                   hru       312     1.0000E+0                 0  
     313  hru00313                   hru       313     1.0000E+0                 0  
     314  hru00314                   hru       314     1.0000E+0                 0  
     315  hru00315                   hru       315     1.0000E+0                 0  
     316  hru00316                   hru       316     1.0000E+0                 0  
     317  hru00317                   hru       317     1.0000E+0                 0  
     318  hru00318                   hru       318     1.0000E+0                 0  
     319  hru00319                   hru       319     1.0000E+0                 0  
     320  hru00320                   hru       320     1.0000E+0                 0  
     321  hru00321                   hru       321     1.0000E+0                 0  
     322  hru00322                   hru       322     1.0000E+0                 0  
     323  hru00323                   hru       323     1.0000E+0                 0  
     324  hru00324                   hru       324     1.0000E+0                 0  
     325  hru00325                   hru       325     1.0000E+0                 0  
     326  hru00326                   hru       326     1.0000E+0                 0  
     327  hru00327                   hru       327     1.0000E+0                 0  
     328  hru00328                   hru       328     1.0000E+0                 0  
     329  hru00329                   hru       329     1.0000E+0                 0  
     330  hru00330                   hru       330     1.0000E+0                 0  
     331  hru00331                   hru       331     1.0000E+0                 0  
     332  hru00332                   hru       332     1.0000E+0                 0  
     333  hru00333                   hru       333     1.0000E+0                 0  
     334  hru00334                   hru       334     1.0000E+0                 0  
     335  hru00335                   hru       335     1.0000E+0                 0  
     336  hru00336                   hru       336     1.0000E+0                 0  
     337  hru00337                   hru       337     1.0000E+0                 0  
     338  hru00338                   hru       338     1.0000E+0                 0  
     339  hru00339                   hru       339     1.0000E+0                 0  
     340  hru00340                   hru       340     1.0000E+0                 0  
     341  hru00341                   hru       341     1.0000E+0                 0  
     342  hru00342                   hru       342     1.0000E+0                 0  
     343  hru00343                   hru       343     1.0000E+0                 0  
     344  hru00344                   hru       344     1.0000E+0                 0  
     345  hru00345                   hru       345     1.0000E+0                 0  
     346  hru00346                   hru       346     1.0000E+0                 0  
     347  hru00347                   hru       347     1.0000E+0                 0  
     348  hru00348                   hru       348     1.0000E+0                 0  
     349  hru00349                   hru       349     1.0000E+0                 0  
     350  hru00350                   hru       350     1.0000E+0                 0  