rout_unit.rtu: written by SWAT+ editor v2.1.0 on 2024-10-10 09:02 for SWAT+ rev.2.1.4
      id              name            define               dlr              topo             field  
       1          rtu00001          rtu00001              null      toportu00001          fld00001  
       2          rtu00002          rtu00002              null      toportu00002          fld00002  
       3          rtu00003          rtu00003              null      toportu00003          fld00003  
       4          rtu00004          rtu00004              null      toportu00004          fld00004  
       5          rtu00005          rtu00005              null      toportu00005          fld00005  
       6          rtu00006          rtu00006              null      toportu00006          fld00006  
       7          rtu00007          rtu00007              null      toportu00007          fld00007  
       8          rtu00008          rtu00008              null      toportu00008          fld00008  
       9          rtu00009          rtu00009              null      toportu00009          fld00009  
      10          rtu00010          rtu00010              null      toportu00010          fld00010  
      11          rtu00011          rtu00011              null      toportu00011          fld00011  
      12          rtu00012          rtu00012              null      toportu00012          fld00012  
      13          rtu00013          rtu00013              null      toportu00013          fld00013  
      14          rtu00014          rtu00014              null      toportu00014          fld00014  
      15          rtu00015          rtu00015              null      toportu00015          fld00015  
      16          rtu00016          rtu00016              null      toportu00016          fld00016  
      17          rtu00017          rtu00017              null      toportu00017          fld00017  
      18          rtu00018          rtu00018              null      toportu00018          fld00018  
      19          rtu00019          rtu00019              null      toportu00019          fld00019  
      20          rtu00020          rtu00020              null      toportu00020          fld00020  
      21          rtu00021          rtu00021              null      toportu00021          fld00021  
      22          rtu00022          rtu00022              null      toportu00022          fld00022  
      23          rtu00023          rtu00023              null      toportu00023          fld00023  
      24          rtu00024          rtu00024              null      toportu00024          fld00024  
      25          rtu00025          rtu00025              null      toportu00025          fld00025  
      26          rtu00026          rtu00026              null      toportu00026          fld00026  
      27          rtu00027          rtu00027              null      toportu00027          fld00027  
      28          rtu00028          rtu00028              null      toportu00028          fld00028  
      29          rtu00029          rtu00029              null      toportu00029          fld00029  
      30          rtu00030          rtu00030              null      toportu00030          fld00030  
      31          rtu00031          rtu00031              null      toportu00031          fld00031  
      32          rtu00032          rtu00032              null      toportu00032          fld00032  
      33          rtu00033          rtu00033              null      toportu00033          fld00033  
      34          rtu00034          rtu00034              null      toportu00034          fld00034  
      35          rtu00035          rtu00035              null      toportu00035          fld00035  
      36          rtu00036          rtu00036              null      toportu00036          fld00036  
      37          rtu00037          rtu00037              null      toportu00037          fld00037  
      38          rtu00038          rtu00038              null      toportu00038          fld00038  
      39          rtu00039          rtu00039              null      toportu00039          fld00039  
      40          rtu00040          rtu00040              null      toportu00040          fld00040  
      41          rtu00041          rtu00041              null      toportu00041          fld00041  
      42          rtu00042          rtu00042              null      toportu00042          fld00042  
      43          rtu00043          rtu00043              null      toportu00043          fld00043  
      44          rtu00044          rtu00044              null      toportu00044          fld00044  
      45          rtu00045          rtu00045              null      toportu00045          fld00045  
      46          rtu00046          rtu00046              null      toportu00046          fld00046  
      47          rtu00047          rtu00047              null      toportu00047          fld00047  
      48          rtu00048          rtu00048              null      toportu00048          fld00048  
      49          rtu00049          rtu00049              null      toportu00049          fld00049  
      50          rtu00050          rtu00050              null      toportu00050          fld00050  
      51          rtu00051          rtu00051              null      toportu00051          fld00051  
      52          rtu00052          rtu00052              null      toportu00052          fld00052  
      53          rtu00053          rtu00053              null      toportu00053          fld00053  
      54          rtu00054          rtu00054              null      toportu00054          fld00054  
      55          rtu00055          rtu00055              null      toportu00055          fld00055  
      56          rtu00056          rtu00056              null      toportu00056          fld00056  
      57          rtu00057          rtu00057              null      toportu00057          fld00057  
      58          rtu00058          rtu00058              null      toportu00058          fld00058  
      59          rtu00059          rtu00059              null      toportu00059          fld00059  
      60          rtu00060          rtu00060              null      toportu00060          fld00060  
      61          rtu00061          rtu00061              null      toportu00061          fld00061  
      62          rtu00062          rtu00062              null      toportu00062          fld00062  
      63          rtu00063          rtu00063              null      toportu00063          fld00063  
      64          rtu00064          rtu00064              null      toportu00064          fld00064  
      65          rtu00065          rtu00065              null      toportu00065          fld00065  
      66          rtu00066          rtu00066              null      toportu00066          fld00066  
      67          rtu00067          rtu00067              null      toportu00067          fld00067  
      68          rtu00068          rtu00068              null      toportu00068          fld00068  
      69          rtu00069          rtu00069              null      toportu00069          fld00069  
      70          rtu00070          rtu00070              null      toportu00070          fld00070  
      71          rtu00071          rtu00071              null      toportu00071          fld00071  
      72          rtu00072          rtu00072              null      toportu00072          fld00072  
      73          rtu00073          rtu00073              null      toportu00073          fld00073  
      74          rtu00074          rtu00074              null      toportu00074          fld00074  
      75          rtu00075          rtu00075              null      toportu00075          fld00075  
      76          rtu00076          rtu00076              null      toportu00076          fld00076  
      77          rtu00077          rtu00077              null      toportu00077          fld00077  
      78          rtu00078          rtu00078              null      toportu00078          fld00078  
      79          rtu00079          rtu00079              null      toportu00079          fld00079  
      80          rtu00080          rtu00080              null      toportu00080          fld00080  
      81          rtu00081          rtu00081              null      toportu00081          fld00081  
      82          rtu00082          rtu00082              null      toportu00082          fld00082  
      83          rtu00083          rtu00083              null      toportu00083          fld00083  
      84          rtu00084          rtu00084              null      toportu00084          fld00084  
      85          rtu00085          rtu00085              null      toportu00085          fld00085  
      86          rtu00086          rtu00086              null      toportu00086          fld00086  
      87          rtu00087          rtu00087              null      toportu00087          fld00087  
      88          rtu00088          rtu00088              null      toportu00088          fld00088  
      89          rtu00089          rtu00089              null      toportu00089          fld00089  
      90          rtu00090          rtu00090              null      toportu00090          fld00090  
      91          rtu00091          rtu00091              null      toportu00091          fld00091  
      92          rtu00092          rtu00092              null      toportu00092          fld00092  
      93          rtu00093          rtu00093              null      toportu00093          fld00093  
      94          rtu00094          rtu00094              null      toportu00094          fld00094  
      95          rtu00095          rtu00095              null      toportu00095          fld00095  
      96          rtu00096          rtu00096              null      toportu00096          fld00096  
      97          rtu00097          rtu00097              null      toportu00097          fld00097  
      98          rtu00098          rtu00098              null      toportu00098          fld00098  
      99          rtu00099          rtu00099              null      toportu00099          fld00099  
     100          rtu00100          rtu00100              null      toportu00100          fld00100  
     101          rtu00101          rtu00101              null      toportu00101          fld00101  
     102          rtu00102          rtu00102              null      toportu00102          fld00102  
     103          rtu00103          rtu00103              null      toportu00103          fld00103  
     104          rtu00104          rtu00104              null      toportu00104          fld00104  
     105          rtu00105          rtu00105              null      toportu00105          fld00105  
     106          rtu00106          rtu00106              null      toportu00106          fld00106  
     107          rtu00107          rtu00107              null      toportu00107          fld00107  
     108          rtu00108          rtu00108              null      toportu00108          fld00108  
     109          rtu00109          rtu00109              null      toportu00109          fld00109  
     110          rtu00110          rtu00110              null      toportu00110          fld00110  
     111          rtu00111          rtu00111              null      toportu00111          fld00111  
     112          rtu00112          rtu00112              null      toportu00112          fld00112  
     113          rtu00113          rtu00113              null      toportu00113          fld00113  
     114          rtu00114          rtu00114              null      toportu00114          fld00114  
     115          rtu00115          rtu00115              null      toportu00115          fld00115  
     116          rtu00116          rtu00116              null      toportu00116          fld00116  
     117          rtu00117          rtu00117              null      toportu00117          fld00117  
     118          rtu00118          rtu00118              null      toportu00118          fld00118  
     119          rtu00119          rtu00119              null      toportu00119          fld00119  
     120          rtu00120          rtu00120              null      toportu00120          fld00120  
     121          rtu00121          rtu00121              null      toportu00121          fld00121  
     122          rtu00122          rtu00122              null      toportu00122          fld00122  
     123          rtu00123          rtu00123              null      toportu00123          fld00123  
     124          rtu00124          rtu00124              null      toportu00124          fld00124  
     125          rtu00125          rtu00125              null      toportu00125          fld00125  
     126          rtu00126          rtu00126              null      toportu00126          fld00126  
     127          rtu00127          rtu00127              null      toportu00127          fld00127  
     128          rtu00128          rtu00128              null      toportu00128          fld00128  
     129          rtu00129          rtu00129              null      toportu00129          fld00129  
     130          rtu00130          rtu00130              null      toportu00130          fld00130  
     131          rtu00131          rtu00131              null      toportu00131          fld00131  
     132          rtu00132          rtu00132              null      toportu00132          fld00132  
     133          rtu00133          rtu00133              null      toportu00133          fld00133  
     134          rtu00134          rtu00134              null      toportu00134          fld00134  
     135          rtu00135          rtu00135              null      toportu00135          fld00135  
     136          rtu00136          rtu00136              null      toportu00136          fld00136  
     137          rtu00137          rtu00137              null      toportu00137          fld00137  
     138          rtu00138          rtu00138              null      toportu00138          fld00138  
     139          rtu00139          rtu00139              null      toportu00139          fld00139  
     140          rtu00140          rtu00140              null      toportu00140          fld00140  
     141          rtu00141          rtu00141              null      toportu00141          fld00141  
     142          rtu00142          rtu00142              null      toportu00142          fld00142  
     143          rtu00143          rtu00143              null      toportu00143          fld00143  
     144          rtu00144          rtu00144              null      toportu00144          fld00144  
     145          rtu00145          rtu00145              null      toportu00145          fld00145  
     146          rtu00146          rtu00146              null      toportu00146          fld00146  
     147          rtu00147          rtu00147              null      toportu00147          fld00147  
     148          rtu00148          rtu00148              null      toportu00148          fld00148  
     149          rtu00149          rtu00149              null      toportu00149          fld00149  
     150          rtu00150          rtu00150              null      toportu00150          fld00150  
     151          rtu00151          rtu00151              null      toportu00151          fld00151  
     152          rtu00152          rtu00152              null      toportu00152          fld00152  
     153          rtu00153          rtu00153              null      toportu00153          fld00153  
     154          rtu00154          rtu00154              null      toportu00154          fld00154  
     155          rtu00155          rtu00155              null      toportu00155          fld00155  
     156          rtu00156          rtu00156              null      toportu00156          fld00156  
     157          rtu00157          rtu00157              null      toportu00157          fld00157  
     158          rtu00158          rtu00158              null      toportu00158          fld00158  
     159          rtu00159          rtu00159              null      toportu00159          fld00159  
     160          rtu00160          rtu00160              null      toportu00160          fld00160  
     161          rtu00161          rtu00161              null      toportu00161          fld00161  
     162          rtu00162          rtu00162              null      toportu00162          fld00162  
     163          rtu00163          rtu00163              null      toportu00163          fld00163  
     164          rtu00164          rtu00164              null      toportu00164          fld00164  
     165          rtu00165          rtu00165              null      toportu00165          fld00165  
     166          rtu00166          rtu00166              null      toportu00166          fld00166  
     167          rtu00167          rtu00167              null      toportu00167          fld00167  
     168          rtu00168          rtu00168              null      toportu00168          fld00168  
     169          rtu00169          rtu00169              null      toportu00169          fld00169  
     170          rtu00170          rtu00170              null      toportu00170          fld00170  
     171          rtu00171          rtu00171              null      toportu00171          fld00171  
     172          rtu00172          rtu00172              null      toportu00172          fld00172  
     173          rtu00173          rtu00173              null      toportu00173          fld00173  
     174          rtu00174          rtu00174              null      toportu00174          fld00174  
     175          rtu00175          rtu00175              null      toportu00175          fld00175  
     176          rtu00176          rtu00176              null      toportu00176          fld00176  
     177          rtu00177          rtu00177              null      toportu00177          fld00177  
     178          rtu00178          rtu00178              null      toportu00178          fld00178  
     179          rtu00179          rtu00179              null      toportu00179          fld00179  
     180          rtu00180          rtu00180              null      toportu00180          fld00180  
     181          rtu00181          rtu00181              null      toportu00181          fld00181  
     182          rtu00182          rtu00182              null      toportu00182          fld00182  
     183          rtu00183          rtu00183              null      toportu00183          fld00183  
     184          rtu00184          rtu00184              null      toportu00184          fld00184  
     185          rtu00185          rtu00185              null      toportu00185          fld00185  
     186          rtu00186          rtu00186              null      toportu00186          fld00186  
     187          rtu00187          rtu00187              null      toportu00187          fld00187  
     188          rtu00188          rtu00188              null      toportu00188          fld00188  
     189          rtu00189          rtu00189              null      toportu00189          fld00189  
     190          rtu00190          rtu00190              null      toportu00190          fld00190  
     191          rtu00191          rtu00191              null      toportu00191          fld00191  
     192          rtu00192          rtu00192              null      toportu00192          fld00192  
     193          rtu00193          rtu00193              null      toportu00193          fld00193  
     194          rtu00194          rtu00194              null      toportu00194          fld00194  
     195          rtu00195          rtu00195              null      toportu00195          fld00195  
     196          rtu00196          rtu00196              null      toportu00196          fld00196  
     197          rtu00197          rtu00197              null      toportu00197          fld00197  
     198          rtu00198          rtu00198              null      toportu00198          fld00198  
     199          rtu00199          rtu00199              null      toportu00199          fld00199  
     200          rtu00200          rtu00200              null      toportu00200          fld00200  
     201          rtu00201          rtu00201              null      toportu00201          fld00201  
     202          rtu00202          rtu00202              null      toportu00202          fld00202  
     203          rtu00203          rtu00203              null      toportu00203          fld00203  
     204          rtu00204          rtu00204              null      toportu00204          fld00204  
     205          rtu00205          rtu00205              null      toportu00205          fld00205  
     206          rtu00206          rtu00206              null      toportu00206          fld00206  
     207          rtu00207          rtu00207              null      toportu00207          fld00207  
     208          rtu00208          rtu00208              null      toportu00208          fld00208  
     209          rtu00209          rtu00209              null      toportu00209          fld00209  
     210          rtu00210          rtu00210              null      toportu00210          fld00210  
     211          rtu00211          rtu00211              null      toportu00211          fld00211  
     212          rtu00212          rtu00212              null      toportu00212          fld00212  
     213          rtu00213          rtu00213              null      toportu00213          fld00213  
     214          rtu00214          rtu00214              null      toportu00214          fld00214  
     215          rtu00215          rtu00215              null      toportu00215          fld00215  
     216          rtu00216          rtu00216              null      toportu00216          fld00216  
     217          rtu00217          rtu00217              null      toportu00217          fld00217  
     218          rtu00218          rtu00218              null      toportu00218          fld00218  
     219          rtu00219          rtu00219              null      toportu00219          fld00219  
     220          rtu00220          rtu00220              null      toportu00220          fld00220  
     221          rtu00221          rtu00221              null      toportu00221          fld00221  
     222          rtu00222          rtu00222              null      toportu00222          fld00222  
     223          rtu00223          rtu00223              null      toportu00223          fld00223  
     224          rtu00224          rtu00224              null      toportu00224          fld00224  
     225          rtu00225          rtu00225              null      toportu00225          fld00225  
     226          rtu00226          rtu00226              null      toportu00226          fld00226  
     227          rtu00227          rtu00227              null      toportu00227          fld00227  
     228          rtu00228          rtu00228              null      toportu00228          fld00228  
     229          rtu00229          rtu00229              null      toportu00229          fld00229  
     230          rtu00230          rtu00230              null      toportu00230          fld00230  
     231          rtu00231          rtu00231              null      toportu00231          fld00231  
     232          rtu00232          rtu00232              null      toportu00232          fld00232  
     233          rtu00233          rtu00233              null      toportu00233          fld00233  
     234          rtu00234          rtu00234              null      toportu00234          fld00234  
     235          rtu00235          rtu00235              null      toportu00235          fld00235  
     236          rtu00236          rtu00236              null      toportu00236          fld00236  
     237          rtu00237          rtu00237              null      toportu00237          fld00237  
     238          rtu00238          rtu00238              null      toportu00238          fld00238  
     239          rtu00239          rtu00239              null      toportu00239          fld00239  
     240          rtu00240          rtu00240              null      toportu00240          fld00240  
     241          rtu00241          rtu00241              null      toportu00241          fld00241  
     242          rtu00242          rtu00242              null      toportu00242          fld00242  
     243          rtu00243          rtu00243              null      toportu00243          fld00243  
     244          rtu00244          rtu00244              null      toportu00244          fld00244  
     245          rtu00245          rtu00245              null      toportu00245          fld00245  
     246          rtu00246          rtu00246              null      toportu00246          fld00246  
     247          rtu00247          rtu00247              null      toportu00247          fld00247  
     248          rtu00248          rtu00248              null      toportu00248          fld00248  
     249          rtu00249          rtu00249              null      toportu00249          fld00249  
     250          rtu00250          rtu00250              null      toportu00250          fld00250  
     251          rtu00251          rtu00251              null      toportu00251          fld00251  
     252          rtu00252          rtu00252              null      toportu00252          fld00252  
     253          rtu00253          rtu00253              null      toportu00253          fld00253  
     254          rtu00254          rtu00254              null      toportu00254          fld00254  
     255          rtu00255          rtu00255              null      toportu00255          fld00255  
     256          rtu00256          rtu00256              null      toportu00256          fld00256  
     257          rtu00257          rtu00257              null      toportu00257          fld00257  
     258          rtu00258          rtu00258              null      toportu00258          fld00258  
     259          rtu00259          rtu00259              null      toportu00259          fld00259  
     260          rtu00260          rtu00260              null      toportu00260          fld00260  
     261          rtu00261          rtu00261              null      toportu00261          fld00261  
     262          rtu00262          rtu00262              null      toportu00262          fld00262  
     263          rtu00263          rtu00263              null      toportu00263          fld00263  
     264          rtu00264          rtu00264              null      toportu00264          fld00264  
     265          rtu00265          rtu00265              null      toportu00265          fld00265  
     266          rtu00266          rtu00266              null      toportu00266          fld00266  
     267          rtu00267          rtu00267              null      toportu00267          fld00267  
     268          rtu00268          rtu00268              null      toportu00268          fld00268  
     269          rtu00269          rtu00269              null      toportu00269          fld00269  
     270          rtu00270          rtu00270              null      toportu00270          fld00270  
     271          rtu00271          rtu00271              null      toportu00271          fld00271  
     272          rtu00272          rtu00272              null      toportu00272          fld00272  
     273          rtu00273          rtu00273              null      toportu00273          fld00273  
     274          rtu00274          rtu00274              null      toportu00274          fld00274  
     275          rtu00275          rtu00275              null      toportu00275          fld00275  
     276          rtu00276          rtu00276              null      toportu00276          fld00276  
     277          rtu00277          rtu00277              null      toportu00277          fld00277  
     278          rtu00278          rtu00278              null      toportu00278          fld00278  
     279          rtu00279          rtu00279              null      toportu00279          fld00279  
     280          rtu00280          rtu00280              null      toportu00280          fld00280  
     281          rtu00281          rtu00281              null      toportu00281          fld00281  
     282          rtu00282          rtu00282              null      toportu00282          fld00282  
     283          rtu00283          rtu00283              null      toportu00283          fld00283  
     284          rtu00284          rtu00284              null      toportu00284          fld00284  
     285          rtu00285          rtu00285              null      toportu00285          fld00285  
     286          rtu00286          rtu00286              null      toportu00286          fld00286  
     287          rtu00287          rtu00287              null      toportu00287          fld00287  
     288          rtu00288          rtu00288              null      toportu00288          fld00288  
     289          rtu00289          rtu00289              null      toportu00289          fld00289  
     290          rtu00290          rtu00290              null      toportu00290          fld00290  
     291          rtu00291          rtu00291              null      toportu00291          fld00291  
     292          rtu00292          rtu00292              null      toportu00292          fld00292  
     293          rtu00293          rtu00293              null      toportu00293          fld00293  
     294          rtu00294          rtu00294              null      toportu00294          fld00294  
     295          rtu00295          rtu00295              null      toportu00295          fld00295  