rout_unit.con: written by SWAT+ editor v2.1.0 on 2024-10-10 09:02 for SWAT+ rev.2.1.4
      id  name                gis_id          area           lat           lon          elev       rtu               wst       cst      ovfl      rule   out_tot       obj_typ    obj_id       hyd_typ          frac  
       1  rtu00001                 0       2.95540      52.65618      18.69867      91.55418         1     s52657n18689e         0         0         0         3            ru      2112           tot       0.66525            ru      2542           tot       0.33475           aqu         1           rhg       1.00000  
       2  rtu00002                 0       0.03521      52.60876      18.74730      94.87765         2      s52617n1874e         0         0         0         2           sdc        74           tot       1.00000           aqu         1           rhg       1.00000  
       3  rtu00003                 0       0.08507      52.65838      18.66100      89.28824         3     s52657n18689e         0         0         0         2            ru      4118           tot       1.00000           aqu         1           rhg       1.00000  
       4  rtu00004                 0       0.08813      52.65880      18.64199      88.76829         4      s52661n1863e         0         0         0         2            ru      7147           tot       1.00000           aqu         1           rhg       1.00000  
       5  rtu00005                 0       0.05874      52.65828      18.64434      88.35360         5      s52661n1863e         0         0         0         3           sdc       155           tot       0.40260            ru      4119           tot       0.59740           aqu         1           rhg       1.00000  
       6  rtu00006                 0       0.04278      52.65707      18.66291      89.22176         6     s52657n18689e         0         0         0         2            ru      4120           tot       1.00000           aqu         1           rhg       1.00000  
       7  rtu00007                 0       0.04911      52.65859      18.66126      89.62350         7     s52657n18689e         0         0         0         3            ru         3           tot       0.33333            ru      4120           tot       0.66667           aqu         1           rhg       1.00000  
       8  rtu00008                 0       0.01764      52.62866      18.68743      90.37333         8     s52621n18682e         0         0         0         2            ru      4121           tot       1.00000           aqu         1           rhg       1.00000  
       9  rtu00009                 0       0.08522      52.60518      18.73315      93.50500         9     s52599n18737e         0         0         0         2            ru      4123           tot       1.00000           aqu         1           rhg       1.00000  
      10  rtu00010                 0       0.24613      52.60533      18.73173      93.60265        10     s52599n18737e         0         0         0         2            ru      4125           tot       1.00000           aqu         1           rhg       1.00000  
      11  rtu00011                 0       0.09355      52.60527      18.73246      93.39026        11     s52599n18737e         0         0         0         2            ru      4126           tot       1.00000           aqu         1           rhg       1.00000  
      12  rtu00012                 0       0.75519      52.55598      18.74165      92.55213        12      s52564n1873e         0         0         0         2            ru      4127           tot       1.00000           aqu         1           rhg       1.00000  
      13  rtu00013                 0       0.61160      52.55607      18.74246      92.89938        13      s52564n1873e         0         0         0         2            ru      3403           tot       1.00000           aqu         1           rhg       1.00000  
      14  rtu00014                 0       0.78266      52.55600      18.74346      92.93571        14     s52561n18759e         0         0         0         3           sdc       145           tot       0.58951            ru      4131           tot       0.41049           aqu         1           rhg       1.00000  
      15  rtu00015                 0       7.42142      52.56314      18.68822      92.29983        15       s52566n187e         0         0         0         2           sdc        14           tot       1.00000           aqu         1           rhg       1.00000  
      16  rtu00016                 0       0.02033      52.57491      18.64692      90.53572        16      s5257n18642e         0         0         0         2            ru      2217           tot       1.00000           aqu         1           rhg       1.00000  
      17  rtu00017                 0       0.29817      52.57764      18.64566      88.82138        17      s5257n18642e         0         0         0         2            ru      3265           tot       1.00000           aqu         1           rhg       1.00000  
      18  rtu00018                 0       0.04840      52.64307      18.69684      90.00421        18     s52639n18685e         0         0         0         2            ru      3641           tot       1.00000           aqu         1           rhg       1.00000  
      19  rtu00019                 0       3.61198      52.54049      18.72621      95.41616        19     s52546n18726e         0         0         0         2            ru       179           tot       1.00000           aqu         1           rhg       1.00000  
      20  rtu00020                 0       0.06694      52.64649      18.66748      88.62385        20     s52641n18656e         0         0         0         3           sdc       101           tot       0.66667            ru      4141           tot       0.33333           aqu         1           rhg       1.00000  
      21  rtu00021                 0       5.65555      52.58200      18.66588      86.99238        21     s52586n18675e         0         0         0         3            ru      1121           tot       0.54641            ru      1127           tot       0.45359           aqu         1           rhg       1.00000  
      22  rtu00022                 0       0.02097      52.64807      18.68328      89.65400        22     s52639n18685e         0         0         0         2            ru      2129           tot       1.00000           aqu         1           rhg       1.00000  
      23  rtu00023                 0       0.24234      52.64836      18.68289      89.43170        23     s52657n18689e         0         0         0         2            ru      4151           tot       1.00000           aqu         1           rhg       1.00000  
      24  rtu00024                 0       2.86354      52.54048      18.72118      96.39481        24     s52546n18726e         0         0         0         5            ru      1313           tot       0.40067            ru      1362           tot       0.19865            ru      3992           tot       0.22896            ru      3994           tot       0.17172           aqu         1           rhg       1.00000  
      25  rtu00025                 0       1.06931      52.65451      18.71985      93.24692        25     s52655n18718e         0         0         0         2            ru      3590           tot       1.00000           aqu         1           rhg       1.00000  
      26  rtu00026                 0       0.05474      52.65379      18.72163      92.32182        26     s52655n18718e         0         0         0         2            ru      4153           tot       1.00000           aqu         1           rhg       1.00000  
      27  rtu00027                 0       0.14044      52.65424      18.71766      93.01298        27     s52655n18718e         0         0         0         2            ru       340           tot       1.00000           aqu         1           rhg       1.00000  
      28  rtu00028                 0       0.05509      52.65457      18.71895      93.63143        28     s52655n18718e         0         0         0         3            ru        25           tot       0.57143            ru      4154           tot       0.42857           aqu         1           rhg       1.00000  
      29  rtu00029                 0       0.24721      52.65391      18.72012      93.65680        29     s52655n18718e         0         0         0         3            ru        25           tot       0.32000            ru      4154           tot       0.68000           aqu         1           rhg       1.00000  
      30  rtu00030                 0       0.02230      52.65357      18.72158      93.01555        30     s52655n18718e         0         0         0         2            ru      4154           tot       1.00000           aqu         1           rhg       1.00000  
      31  rtu00031                 0       0.56301      52.62157      18.75610      95.33704        31      s52617n1874e         0         0         0         2            ru      3682           tot       1.00000           aqu         1           rhg       1.00000  
      32  rtu00032                 0       1.74242      52.55234      18.72277      92.01799        32     s52546n18726e         0         0         0         2            ru      2135           tot       1.00000           aqu         1           rhg       1.00000  
      33  rtu00033                 0       0.03796      52.59401      18.65969      88.66647        33     s52588n18645e         0         0         0         2            ru      4162           tot       1.00000           aqu         1           rhg       1.00000  
      34  rtu00034                 0       0.09297      52.59472      18.65877      88.78528        34     s52588n18645e         0         0         0         2            ru      1606           tot       1.00000           aqu         1           rhg       1.00000  
      35  rtu00035                 0       1.06629      52.54210      18.76347      94.26559        35     s52544n18755e         0         0         0         2            ru       827           tot       1.00000           aqu         1           rhg       1.00000  
      36  rtu00036                 0       0.74612      52.58824      18.70779      92.06397        36     s52584n18704e         0         0         0         2            ru      3781           tot       1.00000           aqu         1           rhg       1.00000  
      37  rtu00037                 0       0.68427      52.58140      18.70393      92.38070        37     s52584n18704e         0         0         0         2            ru      3814           tot       1.00000           aqu         1           rhg       1.00000  
      38  rtu00038                 0       0.41897      52.53725      18.73720      95.42898        38     s52546n18726e         0         0         0         2            ru        41           tot       1.00000           aqu         1           rhg       1.00000  
      39  rtu00039                 0       0.05086      52.53938      18.73968      95.36227        39     s52544n18755e         0         0         0         2            ru      4169           tot       1.00000           aqu         1           rhg       1.00000  
      40  rtu00040                 0       0.33768      52.54010      18.74012      96.14878        40     s52544n18755e         0         0         0         2            ru      4169           tot       1.00000           aqu         1           rhg       1.00000  
      41  rtu00041                 0       0.16843      52.53727      18.73764      95.17971        41     s52546n18726e         0         0         0         2            ru      4171           tot       1.00000           aqu         1           rhg       1.00000  
      42  rtu00042                 0       0.20314      52.53922      18.73925      95.71284        42     s52546n18726e         0         0         0         2            ru      4171           tot       1.00000           aqu         1           rhg       1.00000  
      43  rtu00043                 0       0.40158      52.55892      18.68666      88.64252        43       s52566n187e         0         0         0         3            ru        44           tot       0.46795            ru     10222           tot       0.53205           aqu         1           rhg       1.00000  
      44  rtu00044                 0       3.41729      52.55795      18.68599      87.95413        44       s52566n187e         0         0         0         2            ru     10222           tot       1.00000           aqu         1           rhg       1.00000  
      45  rtu00045                 0       1.43855      52.55673      18.68535      87.35775        45       s52566n187e         0         0         0         2            ru      3931           tot       1.00000           aqu         1           rhg       1.00000  
      46  rtu00046                 0       0.03733      52.58919      18.58721      96.03400        46     s52592n18587e         0         0         0         2            ru      1826           tot       1.00000           aqu         1           rhg       1.00000  
      47  rtu00047                 0       0.10088      52.56531      18.66286      94.74026        47     s52568n18671e         0         0         0         2            ru      4176           tot       1.00000           aqu         1           rhg       1.00000  
      48  rtu00048                 0       0.04300      52.56503      18.65987      92.70722        48     s52568n18671e         0         0         0         2            ru        60           tot       1.00000           aqu         1           rhg       1.00000  
      49  rtu00049                 0       0.07743      52.56573      18.65343      82.27067        49      s5257n18642e         0         0         0         2            ru      3894           tot       1.00000           aqu         1           rhg       1.00000  
      50  rtu00050                 0       0.34535      52.56542      18.65456      85.52162        50      s5257n18642e         0         0         0         2            ru      4177           tot       1.00000           aqu         1           rhg       1.00000  
      51  rtu00051                 0       0.50354      52.56439      18.65805      88.11756        51     s52568n18671e         0         0         0         2            ru      4178           tot       1.00000           aqu         1           rhg       1.00000  
      52  rtu00052                 0       0.90996      52.56432      18.65489      85.31884        52      s5257n18642e         0         0         0         3            ru      1102           tot       0.44902            ru      4179           tot       0.55098           aqu         1           rhg       1.00000  
      53  rtu00053                 0       0.71511      52.56455      18.65237      83.31291        53      s5257n18642e         0         0         0         4           sdc        31           tot       0.37500            ru       104           tot       0.43750            ru      1097           tot       0.18750           aqu         1           rhg       1.00000  
      54  rtu00054                 0       0.07841      52.56519      18.65211      81.53906        54      s5257n18642e         0         0         0         3            ru       104           tot       0.42857            ru      3894           tot       0.57143           aqu         1           rhg       1.00000  
      55  rtu00055                 0       0.01558      52.56492      18.66287      94.39167        55     s52568n18671e         0         0         0         2            ru      4181           tot       1.00000           aqu         1           rhg       1.00000  
      56  rtu00056                 0       0.23175      52.56461      18.66011      92.52255        56     s52568n18671e         0         0         0         2            ru        51           tot       1.00000           aqu         1           rhg       1.00000  
      57  rtu00057                 0       0.26883      52.56542      18.65563      87.28706        57      s5257n18642e         0         0         0         2            ru        50           tot       1.00000           aqu         1           rhg       1.00000  
      58  rtu00058                 0       0.24686      52.56557      18.65942      90.80184        58     s52568n18671e         0         0         0         2            ru      4182           tot       1.00000           aqu         1           rhg       1.00000  
      59  rtu00059                 0       0.06974      52.56568      18.66281      94.76741        59     s52568n18671e         0         0         0         3            ru       769           tot       0.50000            ru      4183           tot       0.50000           aqu         1           rhg       1.00000  
      60  rtu00060                 0       0.18532      52.56511      18.65946      90.86838        60     s52568n18671e         0         0         0         2            ru      4184           tot       1.00000           aqu         1           rhg       1.00000  
      61  rtu00061                 0       0.30450      52.59956      18.70995      91.40117        61     s52601n18707e         0         0         0         2            ru      4185           tot       1.00000           aqu         1           rhg       1.00000  
      62  rtu00062                 0       0.09149      52.59890      18.70948      91.30111        62     s52601n18707e         0         0         0         2           sdc        25           tot       1.00000           aqu         1           rhg       1.00000  
      63  rtu00063                 0       0.18614      52.59917      18.70958      91.38803        63     s52601n18707e         0         0         0         2           sdc        25           tot       1.00000           aqu         1           rhg       1.00000  
      64  rtu00064                 0       1.73304      52.57571      18.73347     101.01496        64     s52581n18733e         0         0         0         2            ru      1836           tot       1.00000           aqu         1           rhg       1.00000  
      65  rtu00065                 0       0.69991      52.57371      18.73329     101.64793        65     s52581n18733e         0         0         0         2            ru       276           tot       1.00000           aqu         1           rhg       1.00000  
      66  rtu00066                 0       0.87532      52.57613      18.73416     100.36096        66     s52581n18733e         0         0         0         2            ru       268           tot       1.00000           aqu         1           rhg       1.00000  
      67  rtu00067                 0       0.41310      52.57779      18.73449      97.14982        67     s52581n18733e         0         0         0         2            ru      4197           tot       1.00000           aqu         1           rhg       1.00000  
      68  rtu00068                 0       0.54720      52.57899      18.73489      98.96083        68     s52581n18733e         0         0         0         2            ru      4198           tot       1.00000           aqu         1           rhg       1.00000  
      69  rtu00069                 0       0.59454      52.57931      18.73401      99.13372        69     s52581n18733e         0         0         0         3            ru      1835           tot       0.33433            ru      4200           tot       0.66567           aqu         1           rhg       1.00000  
      70  rtu00070                 0       0.25393      52.57391      18.73276     101.58042        70     s52581n18733e         0         0         0         3            ru      1838           tot       0.70940            ru      4201           tot       0.29060           aqu         1           rhg       1.00000  
      71  rtu00071                 0       0.25171      52.58745      18.65049      90.31060        71     s52588n18645e         0         0         0         3            ru       265           tot       0.54737            ru      4202           tot       0.45263           aqu         1           rhg       1.00000  
      72  rtu00072                 0       0.30320      52.58861      18.64929      90.28795        72     s52588n18645e         0         0         0         2            ru      4203           tot       1.00000           aqu         1           rhg       1.00000  
      73  rtu00073                 0       0.12567      52.65756      18.67488      89.06765        73     s52657n18689e         0         0         0         2            ru      4221           tot       1.00000           aqu         1           rhg       1.00000  
      74  rtu00074                 0       0.03576      52.63951      18.71104      91.32538        74     s52637n18715e         0         0         0         2            ru      4234           tot       1.00000           aqu         1           rhg       1.00000  
      75  rtu00075                 0       0.32692      52.64126      18.71242      92.04550        75     s52637n18715e         0         0         0         2            ru      1920           tot       1.00000           aqu         1           rhg       1.00000  
      76  rtu00076                 0       0.59952      52.55472      18.71155      94.03212        76     s52546n18726e         0         0         0         2            ru      4240           tot       1.00000           aqu         1           rhg       1.00000  
      77  rtu00077                 0       0.83535      52.55376      18.70951      94.09662        77     s52546n18726e         0         0         0         2            ru        80           tot       1.00000           aqu         1           rhg       1.00000  
      78  rtu00078                 0       0.05097      52.55624      18.71362      94.17950        78      s52564n1873e         0         0         0         3            ru      1193           tot       0.47368            ru      4241           tot       0.52632           aqu         1           rhg       1.00000  
      79  rtu00079                 0       0.14820      52.55592      18.71115      94.10617        79       s52566n187e         0         0         0         2            ru      4242           tot       1.00000           aqu         1           rhg       1.00000  
      80  rtu00080                 0       3.07014      52.55310      18.70975      94.32077        80     s52546n18726e         0         0         0         2            ru      2187           tot       1.00000           aqu         1           rhg       1.00000  
      81  rtu00081                 0       0.98179      52.57571      18.67787      94.22170        81     s52568n18671e         0         0         0         2            ru        84           tot       1.00000           aqu         1           rhg       1.00000  
      82  rtu00082                 0       0.98036      52.57558      18.67701      96.64288        82     s52568n18671e         0         0         0         2            ru        81           tot       1.00000           aqu         1           rhg       1.00000  
      83  rtu00083                 0       1.81463      52.57708      18.67640      94.22919        83     s52586n18675e         0         0         0         2            ru      3247           tot       1.00000           aqu         1           rhg       1.00000  
      84  rtu00084                 0       0.48362      52.57593      18.67849      92.65959        84     s52568n18671e         0         0         0         2            ru      1401           tot       1.00000           aqu         1           rhg       1.00000  
      85  rtu00085                 0       1.27574      52.57721      18.67497      94.70709        85     s52586n18675e         0         0         0         2            ru        83           tot       1.00000           aqu         1           rhg       1.00000  
      86  rtu00086                 0       1.21617      52.54569      18.72364      94.61522        86     s52546n18726e         0         0         0         4            ru       115           tot       0.47651            ru      4001           tot       0.19463            ru      4002           tot       0.32886           aqu         1           rhg       1.00000  
      87  rtu00087                 0       0.33140      52.57061      18.73367      97.01086        87      s52564n1873e         0         0         0         3            ru       273           tot       0.64368            ru      4253           tot       0.35632           aqu         1           rhg       1.00000  
      88  rtu00088                 0       0.04900      52.56553      18.62294      93.34857        88      s5257n18642e         0         0         0         2            ru      4254           tot       1.00000           aqu         1           rhg       1.00000  
      89  rtu00089                 0       0.06681      52.56596      18.62399      93.48571        89      s5257n18642e         0         0         0         3            ru        92           tot       0.51923            ru      4256           tot       0.48077           aqu         1           rhg       1.00000  
      90  rtu00090                 0       0.02446      52.56399      18.62395      93.79222        90      s5257n18642e         0         0         0         2            ru      4256           tot       1.00000           aqu         1           rhg       1.00000  
      91  rtu00091                 0       0.12548      52.56395      18.62364      93.79960        91      s5257n18642e         0         0         0         2            ru      4256           tot       1.00000           aqu         1           rhg       1.00000  
      92  rtu00092                 0       0.04823      52.56574      18.62344      93.50211        92      s5257n18642e         0         0         0         2            ru      3570           tot       1.00000           aqu         1           rhg       1.00000  
      93  rtu00093                 0       0.02146      52.56216      18.62268      94.87800        93      s5257n18642e         0         0         0         2            ru      4260           tot       1.00000           aqu         1           rhg       1.00000  
      94  rtu00094                 0       1.67121      52.65385      18.70643      91.61175        94     s52655n18718e         0         0         0         2            ru       691           tot       1.00000           aqu         1           rhg       1.00000  
      95  rtu00095                 0       0.22600      52.65219      18.70735      91.96034        95     s52655n18718e         0         0         0         2            ru      4261           tot       1.00000           aqu         1           rhg       1.00000  
      96  rtu00096                 0       0.37005      52.60045      18.71069      91.06575        96     s52601n18707e         0         0         0         2            ru      4262           tot       1.00000           aqu         1           rhg       1.00000  
      97  rtu00097                 0       0.04711      52.60119      18.69189      86.03737        97     s52604n18678e         0         0         0         2            ru     10085           tot       1.00000           aqu         1           rhg       1.00000  
      98  rtu00098                 0       4.85789      52.54384      18.76839      95.88084        98     s52544n18755e         0         0         0         2            ru       826           tot       1.00000           aqu         1           rhg       1.00000  
      99  rtu00099                 0       0.03738      52.57007      18.64500      89.01706        99      s5257n18642e         0         0         0         2            ru      4282           tot       1.00000           aqu         1           rhg       1.00000  
     100  rtu00100                 0       0.87451      52.56479      18.64367      86.28037       100      s5257n18642e         0         0         0         2            ru      4285           tot       1.00000           aqu         1           rhg       1.00000  
     101  rtu00101                 0       0.64570      52.56467      18.64901      83.65423       101      s5257n18642e         0         0         0         2            ru      4286           tot       1.00000           aqu         1           rhg       1.00000  
     102  rtu00102                 0       0.63318      52.56545      18.65110      81.36130       102      s5257n18642e         0         0         0         2           sdc       135           tot       1.00000           aqu         1           rhg       1.00000  
     103  rtu00103                 0       0.08460      52.56995      18.64193      92.08057       103      s5257n18642e         0         0         0         3            ru      4287           tot       0.69231            ru      8637           tot       0.30769           aqu         1           rhg       1.00000  
     104  rtu00104                 0       1.04730      52.56467      18.65096      81.14371       104      s5257n18642e         0         0         0         2           sdc        31           tot       1.00000           aqu         1           rhg       1.00000  
     105  rtu00105                 0       0.38471      52.56304      18.76811      99.98660       105     s52561n18759e         0         0         0         2            ru      4290           tot       1.00000           aqu         1           rhg       1.00000  
     106  rtu00106                 0       0.12553      52.56091      18.75778      97.81314       106     s52561n18759e         0         0         0         2            ru      3409           tot       1.00000           aqu         1           rhg       1.00000  