soils.sol: written by SWAT+ editor v2.1.0 on 2024-10-10 09:02 for SWAT+ rev.2.1.4
name                            nly           hyd_grp        dp_tot    anion_excl      perc_crk  texture                              dp            bd           awc        soil_k        carbon          clay          silt          sand          rock           alb        usle_k            ec         caco3            ph  
s5                                3                 B    1500.00000       0.50000       0.50000  null                       
                                                                                                                               250.00000       0.65000       0.29000       1.45000      17.70000      50.00000       0.00000       0.00000       0.00000       0.01000       0.01000       0.00000       0.00000       0.00000  
                                                                                                                               750.00000       0.36000       0.47000       2.10000      40.10000      50.00000       0.00000       0.00000       0.00000       0.01000       0.01000       0.00000       0.00000       0.00000  
                                                                                                                              1500.00000       0.15000       0.65000       2.20000      46.30000      50.00000       0.00000       0.00000       0.00000       0.01000       0.01000       0.00000       0.00000       0.00000  
s6                                3                 B    1500.00000       0.50000       0.50000  null                       
                                                                                                                               250.00000       0.65000       0.29000       1.45000      17.70000      50.00000       0.00000       0.00000       0.00000       0.01000       0.01000       0.00000       0.00000       0.00000  
                                                                                                                               750.00000       0.36000       0.47000       2.10000      40.10000      50.00000       0.00000       0.00000       0.00000       0.01000       0.01000       0.00000       0.00000       0.00000  
                                                                                                                              1500.00000       0.15000       0.65000       2.20000      46.30000      50.00000       0.00000       0.00000       0.00000       0.01000       0.01000       0.00000       0.00000       0.00000  
s7                                3                 A    1500.00000       0.50000       0.50000  null                       
                                                                                                                               250.00000       0.65000       0.29000       1.45000      17.70000      50.00000       0.00000       0.00000       0.00000       0.01000       0.01000       0.00000       0.00000       0.00000  
                                                                                                                               750.00000       0.36000       0.47000       2.10000      40.10000      50.00000       0.00000       0.00000       0.00000       0.01000       0.01000       0.00000       0.00000       0.00000  
                                                                                                                              1500.00000       0.15000       0.65000       2.20000      46.30000      50.00000       0.00000       0.00000       0.00000       0.01000       0.01000       0.00000       0.00000       0.00000  
s8                                3                 B    1500.00000       0.50000       0.50000  null                       
                                                                                                                               250.00000       0.65000       0.29000       1.45000      17.70000      50.00000       0.00000       0.00000       0.00000       0.01000       0.01000       0.00000       0.00000       0.00000  
                                                                                                                               750.00000       0.36000       0.47000       2.10000      40.10000      50.00000       0.00000       0.00000       0.00000       0.01000       0.01000       0.00000       0.00000       0.00000  
                                                                                                                              1500.00000       0.15000       0.65000       2.20000      46.30000      50.00000       0.00000       0.00000       0.00000       0.01000       0.01000       0.00000       0.00000       0.00000  
s9                                3                 D    1500.00000       0.50000       0.50000  null                       
                                                                                                                               250.00000       0.65000       0.29000       1.45000      17.70000      50.00000       0.00000       0.00000       0.00000       0.01000       0.01000       0.00000       0.00000       0.00000  
                                                                                                                               750.00000       0.36000       0.47000       2.10000      40.10000      50.00000       0.00000       0.00000       0.00000       0.01000       0.01000       0.00000       0.00000       0.00000  
                                                                                                                              1500.00000       0.15000       0.65000       2.20000      46.30000      50.00000       0.00000       0.00000       0.00000       0.01000       0.01000       0.00000       0.00000       0.00000  
s10                               3                 A    1500.00000       0.50000       0.50000  null                       
                                                                                                                               250.00000       0.65000       0.29000       1.45000      17.70000      50.00000       0.00000       0.00000       0.00000       0.01000       0.01000       0.00000       0.00000       0.00000  
                                                                                                                               750.00000       0.36000       0.47000       2.10000      40.10000      50.00000       0.00000       0.00000       0.00000       0.01000       0.01000       0.00000       0.00000       0.00000  
                                                                                                                              1500.00000       0.15000       0.65000       2.20000      46.30000      50.00000       0.00000       0.00000       0.00000       0.01000       0.01000       0.00000       0.00000       0.00000  
s11                               3                 B    1500.00000       0.50000       0.50000  null                       
                                                                                                                               250.00000       0.65000       0.29000       1.45000      17.70000      50.00000       0.00000       0.00000       0.00000       0.01000       0.01000       0.00000       0.00000       0.00000  
                                                                                                                               750.00000       0.36000       0.47000       2.10000      40.10000      50.00000       0.00000       0.00000       0.00000       0.01000       0.01000       0.00000       0.00000       0.00000  
                                                                                                                              1500.00000       0.15000       0.65000       2.20000      46.30000      50.00000       0.00000       0.00000       0.00000       0.01000       0.01000       0.00000       0.00000       0.00000  
s12                               3                 D    1500.00000       0.50000       0.50000  null                       
                                                                                                                               250.00000       0.65000       0.29000       1.45000      17.70000      50.00000       0.00000       0.00000       0.00000       0.01000       0.01000       0.00000       0.00000       0.00000  
                                                                                                                               750.00000       0.36000       0.47000       2.10000      40.10000      50.00000       0.00000       0.00000       0.00000       0.01000       0.01000       0.00000       0.00000       0.00000  
                                                                                                                              1500.00000       0.15000       0.65000       2.20000      46.30000      50.00000       0.00000       0.00000       0.00000       0.01000       0.01000       0.00000       0.00000       0.00000  
s13                               3                 A    1500.00000       0.50000       0.50000  null                       
                                                                                                                               250.00000       0.65000       0.29000       1.45000      17.70000      50.00000       0.00000       0.00000       0.00000       0.01000       0.01000       0.00000       0.00000       0.00000  
                                                                                                                               750.00000       0.36000       0.47000       2.10000      40.10000      50.00000       0.00000       0.00000       0.00000       0.01000       0.01000       0.00000       0.00000       0.00000  
                                                                                                                              1500.00000       0.15000       0.65000       2.20000      46.30000      50.00000       0.00000       0.00000       0.00000       0.01000       0.01000       0.00000       0.00000       0.00000  
s14                               3                 B    1500.00000       0.50000       0.50000  null                       
                                                                                                                               250.00000       0.65000       0.29000       1.45000      17.70000      50.00000       0.00000       0.00000       0.00000       0.01000       0.01000       0.00000       0.00000       0.00000  
                                                                                                                               750.00000       0.36000       0.47000       2.10000      40.10000      50.00000       0.00000       0.00000       0.00000       0.01000       0.01000       0.00000       0.00000       0.00000  
                                                                                                                              1500.00000       0.15000       0.65000       2.20000      46.30000      50.00000       0.00000       0.00000       0.00000       0.01000       0.01000       0.00000       0.00000       0.00000  
s15                               3                 C    1500.00000       0.50000       0.50000  null                       
                                                                                                                               250.00000       0.65000       0.29000       1.45000      17.70000      50.00000       0.00000       0.00000       0.00000       0.01000       0.01000       0.00000       0.00000       0.00000  
                                                                                                                               750.00000       0.36000       0.47000       2.10000      40.10000      50.00000       0.00000       0.00000       0.00000       0.01000       0.01000       0.00000       0.00000       0.00000  
                                                                                                                              1500.00000       0.15000       0.65000       2.20000      46.30000      50.00000       0.00000       0.00000       0.00000       0.01000       0.01000       0.00000       0.00000       0.00000  
s16                               3                 D    1500.00000       0.50000       0.50000  null                       
                                                                                                                               250.00000       0.65000       0.29000       1.45000      17.70000      50.00000       0.00000       0.00000       0.00000       0.01000       0.01000       0.00000       0.00000       0.00000  
                                                                                                                               750.00000       0.36000       0.47000       2.10000      40.10000      50.00000       0.00000       0.00000       0.00000       0.01000       0.01000       0.00000       0.00000       0.00000  
                                                                                                                              1500.00000       0.15000       0.65000       2.20000      46.30000      50.00000       0.00000       0.00000       0.00000       0.01000       0.01000       0.00000       0.00000       0.00000  
s19                               3                 D    1500.00000       0.50000       0.50000  null                       
                                                                                                                               250.00000       0.65000       0.29000       1.45000      17.70000      50.00000       0.00000       0.00000       0.00000       0.01000       0.01000       0.00000       0.00000       0.00000  
                                                                                                                               750.00000       0.36000       0.47000       2.10000      40.10000      50.00000       0.00000       0.00000       0.00000       0.01000       0.01000       0.00000       0.00000       0.00000  
                                                                                                                              1500.00000       0.15000       0.65000       2.20000      46.30000      50.00000       0.00000       0.00000       0.00000       0.01000       0.01000       0.00000       0.00000       0.00000  
s20                               3                 A    1500.00000       0.50000       0.50000  null                       
                                                                                                                               250.00000       0.65000       0.29000       1.45000      17.70000      50.00000       0.00000       0.00000       0.00000       0.01000       0.01000       0.00000       0.00000       0.00000  
                                                                                                                               750.00000       0.36000       0.47000       2.10000      40.10000      50.00000       0.00000       0.00000       0.00000       0.01000       0.01000       0.00000       0.00000       0.00000  
                                                                                                                              1500.00000       0.15000       0.65000       2.20000      46.30000      50.00000       0.00000       0.00000       0.00000       0.01000       0.01000       0.00000       0.00000       0.00000  
s21                               3                 B    1500.00000       0.50000       0.50000  null                       
                                                                                                                               250.00000       0.65000       0.29000       1.45000      17.70000      50.00000       0.00000       0.00000       0.00000       0.01000       0.01000       0.00000       0.00000       0.00000  
                                                                                                                               750.00000       0.36000       0.47000       2.10000      40.10000      50.00000       0.00000       0.00000       0.00000       0.01000       0.01000       0.00000       0.00000       0.00000  
                                                                                                                              1500.00000       0.15000       0.65000       2.20000      46.30000      50.00000       0.00000       0.00000       0.00000       0.01000       0.01000       0.00000       0.00000       0.00000  
s23                               3                 D    1500.00000       0.50000       0.50000  null                       
                                                                                                                               250.00000       0.65000       0.29000       1.45000      17.70000      50.00000       0.00000       0.00000       0.00000       0.01000       0.01000       0.00000       0.00000       0.00000  
                                                                                                                               750.00000       0.36000       0.47000       2.10000      40.10000      50.00000       0.00000       0.00000       0.00000       0.01000       0.01000       0.00000       0.00000       0.00000  
                                                                                                                              1500.00000       0.15000       0.65000       2.20000      46.30000      50.00000       0.00000       0.00000       0.00000       0.01000       0.01000       0.00000       0.00000       0.00000  
s24                               3                 A    1500.00000       0.50000       0.50000  null                       
                                                                                                                               250.00000       0.65000       0.29000       1.45000      17.70000      50.00000       0.00000       0.00000       0.00000       0.01000       0.01000       0.00000       0.00000       0.00000  
                                                                                                                               750.00000       0.36000       0.47000       2.10000      40.10000      50.00000       0.00000       0.00000       0.00000       0.01000       0.01000       0.00000       0.00000       0.00000  
                                                                                                                              1500.00000       0.15000       0.65000       2.20000      46.30000      50.00000       0.00000       0.00000       0.00000       0.01000       0.01000       0.00000       0.00000       0.00000  
s25                               3                 B    1500.00000       0.50000       0.50000  null                       
                                                                                                                               250.00000       0.65000       0.29000       1.45000      17.70000      50.00000       0.00000       0.00000       0.00000       0.01000       0.01000       0.00000       0.00000       0.00000  
                                                                                                                               750.00000       0.36000       0.47000       2.10000      40.10000      50.00000       0.00000       0.00000       0.00000       0.01000       0.01000       0.00000       0.00000       0.00000  
                                                                                                                              1500.00000       0.15000       0.65000       2.20000      46.30000      50.00000       0.00000       0.00000       0.00000       0.01000       0.01000       0.00000       0.00000       0.00000  
s26                               3                 C    1500.00000       0.50000       0.50000  null                       
                                                                                                                               250.00000       0.65000       0.29000       1.45000      17.70000      50.00000       0.00000       0.00000       0.00000       0.01000       0.01000       0.00000       0.00000       0.00000  
                                                                                                                               750.00000       0.36000       0.47000       2.10000      40.10000      50.00000       0.00000       0.00000       0.00000       0.01000       0.01000       0.00000       0.00000       0.00000  
                                                                                                                              1500.00000       0.15000       0.65000       2.20000      46.30000      50.00000       0.00000       0.00000       0.00000       0.01000       0.01000       0.00000       0.00000       0.00000  
s28                               3                 A    1500.00000       0.50000       0.50000  null                       
                                                                                                                               250.00000       1.47411       0.15800      15.86759       0.83140       2.46500      10.33000      87.20500       0.00000       0.17146       0.12041       0.00000       0.00000       0.00000  
                                                                                                                               750.00000       1.55376       0.14653      14.30953       0.41279       2.46500      10.33000      87.20500       0.00000       0.18067       0.12537       0.00000       0.00000       0.00000  
                                                                                                                              1500.00000       1.64838       0.09848      13.57015       0.07558       1.15050       3.45700      95.39250       0.00000       0.20998       0.09235       0.00000       0.00000       0.00000  
s29                               3                 A    1500.00000       0.50000       0.50000  null                       
                                                                                                                               250.00000       1.47411       0.15800      15.86759       0.83140       2.46500      10.33000      87.20500       0.00000       0.17146       0.12041       0.00000       0.00000       0.00000  
                                                                                                                               750.00000       1.55376       0.14653      14.30953       0.41279       2.46500      10.33000      87.20500       0.00000       0.18067       0.12537       0.00000       0.00000       0.00000  
                                                                                                                              1500.00000       1.64838       0.09848      13.57015       0.07558       1.15050       3.45700      95.39250       0.00000       0.20998       0.09235       0.00000       0.00000       0.00000  
s30                               3                 A    1500.00000       0.50000       0.50000  null                       
                                                                                                                               250.00000       1.47411       0.15800      15.86759       0.83140       2.46500      10.33000      87.20500       0.00000       0.17146       0.12041       0.00000       0.00000       0.00000  
                                                                                                                               750.00000       1.55376       0.14653      14.30953       0.41279       2.46500      10.33000      87.20500       0.00000       0.18067       0.12537       0.00000       0.00000       0.00000  
                                                                                                                              1500.00000       1.64838       0.09848      13.57015       0.07558       1.15050       3.45700      95.39250       0.00000       0.20998       0.09235       0.00000       0.00000       0.00000  
s31                               3                 A    1500.00000       0.50000       0.50000  null                       
                                                                                                                               250.00000       1.47411       0.15800      15.86759       0.83140       2.46500      10.33000      87.20500       0.00000       0.17146       0.12041       0.00000       0.00000       0.00000  
                                                                                                                               750.00000       1.55376       0.14653      14.30953       0.41279       2.46500      10.33000      87.20500       0.00000       0.18067       0.12537       0.00000       0.00000       0.00000  
                                                                                                                              1500.00000       1.65590       0.11311      10.60320       0.07558       1.97000       6.88000      91.15000       0.00000       0.20250       0.10422       0.00000       0.00000       0.00000  
s32                               3                 A    1500.00000       0.50000       0.50000  null                       
                                                                                                                               250.00000       1.47411       0.15800      15.86759       0.83140       2.46500      10.33000      87.20500       0.00000       0.17146       0.12041       0.00000       0.00000       0.00000  
                                                                                                                               750.00000       1.55376       0.14653      14.30953       0.41279       2.46500      10.33000      87.20500       0.00000       0.18067       0.12537       0.00000       0.00000       0.00000  
                                                                                                                              1500.00000       1.65590       0.11311      10.60320       0.07558       1.97000       6.88000      91.15000       0.00000       0.20250       0.10422       0.00000       0.00000       0.00000  
s33                               3                 A    1500.00000       0.50000       0.50000  null                       
                                                                                                                               250.00000       1.47411       0.15800      15.86759       0.83140       2.46500      10.33000      87.20500       0.00000       0.17146       0.12041       0.00000       0.00000       0.00000  
                                                                                                                               750.00000       1.55376       0.14653      14.30953       0.41279       2.46500      10.33000      87.20500       0.00000       0.18067       0.12537       0.00000       0.00000       0.00000  
                                                                                                                              1500.00000       1.65590       0.11311      10.60320       0.07558       1.97000       6.88000      91.15000       0.00000       0.20250       0.10422       0.00000       0.00000       0.00000  
s34                               3                 A    1500.00000       0.50000       0.50000  null                       
                                                                                                                               250.00000       1.47411       0.15800      15.86759       0.83140       2.46500      10.33000      87.20500       0.00000       0.17146       0.12041       0.00000       0.00000       0.00000  
                                                                                                                               750.00000       1.55376       0.14653      14.30953       0.41279       2.46500      10.33000      87.20500       0.00000       0.18067       0.12537       0.00000       0.00000       0.00000  
                                                                                                                              1500.00000       1.65590       0.11311      10.60320       0.07558       1.97000       6.88000      91.15000       0.00000       0.20250       0.10422       0.00000       0.00000       0.00000  
s35                               3                 A    1500.00000       0.50000       0.50000  null                       
                                                                                                                               250.00000       1.47411       0.15800      15.86759       0.83140       2.46500      10.33000      87.20500       0.00000       0.17146       0.12041       0.00000       0.00000       0.00000  
                                                                                                                               750.00000       1.55376       0.14653      14.30953       0.41279       2.46500      10.33000      87.20500       0.00000       0.18067       0.12537       0.00000       0.00000       0.00000  
                                                                                                                              1500.00000       1.72490       0.14131       6.90431       0.07558      12.06641      25.39313      62.54047       0.00000       0.16842       0.25559       0.00000       0.00000       0.00000  
s36                               3                 A    1500.00000       0.50000       0.50000  null                       