sweep.ops: written by SWAT+ editor v2.1.0 on 2024-10-10 09:02 for SWAT+ rev.2.1.4
name                   swp_eff     frac_curb  description
high_eff               0.80000       0.90000  
