topography.hyd: written by SWAT+ editor v2.1.0 on 2024-10-10 09:02 for SWAT+ rev.2.1.4
name                       slp       slp_len       lat_len      dist_cha         depos  
topohru00001           0.00944      30.00000      30.00000     121.00000       0.00000  
topohru00002           0.05795      30.00000      30.00000     121.00000       0.00000  
topohru00003           0.02270      30.00000      30.00000     121.00000       0.00000  
topohru00004           0.02638      30.00000      30.00000     121.00000       0.00000  
topohru00005           0.03182      30.00000      30.00000     121.00000       0.00000  
topohru00006           0.01989      30.00000      30.00000     121.00000       0.00000  
topohru00007           0.01621      30.00000      30.00000     121.00000       0.00000  
topohru00008           0.00768      30.00000      30.00000     121.00000       0.00000  
topohru00009           0.03062      30.00000      30.00000     121.00000       0.00000  
topohru00010           0.01964      30.00000      30.00000     121.00000       0.00000  
topohru00011           0.01891      30.00000      30.00000     121.00000       0.00000  
topohru00012           0.02438      30.00000      30.00000     121.00000       0.00000  
topohru00013           0.02196      30.00000      30.00000     121.00000       0.00000  
topohru00014           0.01922      30.00000      30.00000     121.00000       0.00000  
topohru00015           0.06104      30.00000      30.00000     121.00000       0.00000  
topohru00016           0.02328      30.00000      30.00000     121.00000       0.00000  
topohru00017           0.05414      30.00000      30.00000     121.00000       0.00000  
topohru00018           0.12321      30.00000      30.00000     121.00000       0.00000  
topohru00019           0.01877      30.00000      30.00000     121.00000       0.00000  
topohru00020           0.04610      30.00000      30.00000     121.00000       0.00000  
topohru00021           0.02887      30.00000      30.00000     121.00000       0.00000  
topohru00022           0.01944      30.00000      30.00000     121.00000       0.00000  
topohru00023           0.01557      30.00000      30.00000     121.00000       0.00000  
topohru00024           0.01618      30.00000      30.00000     121.00000       0.00000  
topohru00025           0.02659      30.00000      30.00000     121.00000       0.00000  
topohru00026           0.03769      30.00000      30.00000     121.00000       0.00000  
topohru00027           0.01343      30.00000      30.00000     121.00000       0.00000  
topohru00028           0.01078      30.00000      30.00000     121.00000       0.00000  
topohru00029           0.01219      30.00000      30.00000     121.00000       0.00000  
topohru00030           0.02308      30.00000      30.00000     121.00000       0.00000  
topohru00031           0.01695      30.00000      30.00000     121.00000       0.00000  
topohru00032           0.02190      30.00000      30.00000     121.00000       0.00000  
topohru00033           0.02693      30.00000      30.00000     121.00000       0.00000  
topohru00034           0.02668      30.00000      30.00000     121.00000       0.00000  
topohru00035           0.01819      30.00000      30.00000     121.00000       0.00000  
topohru00036           0.01423      30.00000      30.00000     121.00000       0.00000  
topohru00037           0.01327      30.00000      30.00000     121.00000       0.00000  
topohru00038           0.01671      30.00000      30.00000     121.00000       0.00000  
topohru00039           0.02775      30.00000      30.00000     121.00000       0.00000  
topohru00040           0.02629      30.00000      30.00000     121.00000       0.00000  
topohru00041           0.01563      30.00000      30.00000     121.00000       0.00000  
topohru00042           0.02810      30.00000      30.00000     121.00000       0.00000  
topohru00043           0.07260      30.00000      30.00000     121.00000       0.00000  
topohru00044           0.05248      30.00000      30.00000     121.00000       0.00000  
topohru00045           0.04384      30.00000      30.00000     121.00000       0.00000  
topohru00046           0.01661      30.00000      30.00000     121.00000       0.00000  
topohru00047           0.02762      30.00000      30.00000     121.00000       0.00000  
topohru00048           0.04810      30.00000      30.00000     121.00000       0.00000  
topohru00049           0.05105      30.00000      30.00000     121.00000       0.00000  
topohru00050           0.03810      30.00000      30.00000     121.00000       0.00000  
topohru00051           0.05051      30.00000      30.00000     121.00000       0.00000  
topohru00052           0.03323      30.00000      30.00000     121.00000       0.00000  
topohru00053           0.03520      30.00000      30.00000     121.00000       0.00000  
topohru00054           0.04962      30.00000      30.00000     121.00000       0.00000  
topohru00055           0.05321      30.00000      30.00000     121.00000       0.00000  
topohru00056           0.04991      30.00000      30.00000     121.00000       0.00000  
topohru00057           0.02107      30.00000      30.00000     121.00000       0.00000  
topohru00058           0.06187      30.00000      30.00000     121.00000       0.00000  
topohru00059           0.02914      30.00000      30.00000     121.00000       0.00000  
topohru00060           0.07839      30.00000      30.00000     121.00000       0.00000  
topohru00061           0.02390      30.00000      30.00000     121.00000       0.00000  
topohru00062           0.05467      30.00000      30.00000     121.00000       0.00000  
topohru00063           0.02858      30.00000      30.00000     121.00000       0.00000  
topohru00064           0.03788      30.00000      30.00000     121.00000       0.00000  
topohru00065           0.02639      30.00000      30.00000     121.00000       0.00000  
topohru00066           0.03292      30.00000      30.00000     121.00000       0.00000  
topohru00067           0.03027      30.00000      30.00000     121.00000       0.00000  
topohru00068           0.02496      30.00000      30.00000     121.00000       0.00000  
topohru00069           0.01715      30.00000      30.00000     121.00000       0.00000  
topohru00070           0.02684      30.00000      30.00000     121.00000       0.00000  
topohru00071           0.01813      30.00000      30.00000     121.00000       0.00000  
topohru00072           0.01702      30.00000      30.00000     121.00000       0.00000  
topohru00073           0.01629      30.00000      30.00000     121.00000       0.00000  
topohru00074           0.03381      30.00000      30.00000     121.00000       0.00000  
topohru00075           0.01142      30.00000      30.00000     121.00000       0.00000  
topohru00076           0.02589      30.00000      30.00000     121.00000       0.00000  
topohru00077           0.01714      30.00000      30.00000     121.00000       0.00000  
topohru00078           0.02197      30.00000      30.00000     121.00000       0.00000  
topohru00079           0.02914      30.00000      30.00000     121.00000       0.00000  
topohru00080           0.01546      30.00000      30.00000     121.00000       0.00000  
topohru00081           0.03802      30.00000      30.00000     121.00000       0.00000  
topohru00082           0.03823      30.00000      30.00000     121.00000       0.00000  
topohru00083           0.04056      30.00000      30.00000     121.00000       0.00000  
topohru00084           0.03246      30.00000      30.00000     121.00000       0.00000  
topohru00085           0.04449      30.00000      30.00000     121.00000       0.00000  
topohru00086           0.01756      30.00000      30.00000     121.00000       0.00000  
topohru00087           0.02191      30.00000      30.00000     121.00000       0.00000  
topohru00088           0.01816      30.00000      30.00000     121.00000       0.00000  
topohru00089           0.01375      30.00000      30.00000     121.00000       0.00000  
topohru00090           0.01443      30.00000      30.00000     121.00000       0.00000  
topohru00091           0.01590      30.00000      30.00000     121.00000       0.00000  
topohru00092           0.01670      30.00000      30.00000     121.00000       0.00000  
topohru00093           0.01788      30.00000      30.00000     121.00000       0.00000  
topohru00094           0.01828      30.00000      30.00000     121.00000       0.00000  
topohru00095           0.01441      30.00000      30.00000     121.00000       0.00000  
topohru00096           0.02720      30.00000      30.00000     121.00000       0.00000  
topohru00097           0.04806      30.00000      30.00000     121.00000       0.00000  
topohru00098           0.01258      30.00000      30.00000     121.00000       0.00000  
topohru00099           0.03893      30.00000      30.00000     121.00000       0.00000  
topohru00100           0.05331      30.00000      30.00000     121.00000       0.00000  
topohru00101           0.02619      30.00000      30.00000     121.00000       0.00000  
topohru00102           0.02574      30.00000      30.00000     121.00000       0.00000  
topohru00103           0.03507      30.00000      30.00000     121.00000       0.00000  
topohru00104           0.01384      30.00000      30.00000     121.00000       0.00000  
topohru00105           0.01034      30.00000      30.00000     121.00000       0.00000  
topohru00106           0.01364      30.00000      30.00000     121.00000       0.00000  
topohru00107           0.00528      30.00000      30.00000     121.00000       0.00000  
topohru00108           0.01520      30.00000      30.00000     121.00000       0.00000  
topohru00109           0.01419      30.00000      30.00000     121.00000       0.00000  
topohru00110           0.02229      30.00000      30.00000     121.00000       0.00000  
topohru00111           0.05708      30.00000      30.00000     121.00000       0.00000  
topohru00112           0.03996      30.00000      30.00000     121.00000       0.00000  
topohru00113           0.05823      30.00000      30.00000     121.00000       0.00000  
topohru00114           0.02978      30.00000      30.00000     121.00000       0.00000  
topohru00115           0.01466      30.00000      30.00000     121.00000       0.00000  
topohru00116           0.02974      30.00000      30.00000     121.00000       0.00000  
topohru00117           0.01649      30.00000      30.00000     121.00000       0.00000  
topohru00118           0.06267      30.00000      30.00000     121.00000       0.00000  
topohru00119           0.04323      30.00000      30.00000     121.00000       0.00000  
topohru00120           0.03619      30.00000      30.00000     121.00000       0.00000  
topohru00121           0.02048      30.00000      30.00000     121.00000       0.00000  
topohru00122           0.02280      30.00000      30.00000     121.00000       0.00000  
topohru00123           0.04449      30.00000      30.00000     121.00000       0.00000  
topohru00124           0.01559      30.00000      30.00000     121.00000       0.00000  
topohru00125           0.01525      30.00000      30.00000     121.00000       0.00000  
topohru00126           0.01318      30.00000      30.00000     121.00000       0.00000  
topohru00127           0.01098      30.00000      30.00000     121.00000       0.00000  
topohru00128           0.01171      30.00000      30.00000     121.00000       0.00000  
topohru00129           0.00921      30.00000      30.00000     121.00000       0.00000  
topohru00130           0.01713      30.00000      30.00000     121.00000       0.00000  
topohru00131           0.01799      30.00000      30.00000     121.00000       0.00000  
topohru00132           0.01431      30.00000      30.00000     121.00000       0.00000  
topohru00133           0.07783      30.00000      30.00000     121.00000       0.00000  
topohru00134           0.03785      30.00000      30.00000     121.00000       0.00000  
topohru00135           0.02179      30.00000      30.00000     121.00000       0.00000  
topohru00136           0.03458      30.00000      30.00000     121.00000       0.00000  
topohru00137           0.03083      30.00000      30.00000     121.00000       0.00000  
topohru00138           0.06256      30.00000      30.00000     121.00000       0.00000  
topohru00139           0.03082      30.00000      30.00000     121.00000       0.00000  
topohru00140           0.06234      30.00000      30.00000     121.00000       0.00000  
topohru00141           0.13236      30.00000      30.00000     121.00000       0.00000  
topohru00142           0.04374      30.00000      30.00000     121.00000       0.00000  
topohru00143           0.04244      30.00000      30.00000     121.00000       0.00000  
topohru00144           0.01258      30.00000      30.00000     121.00000       0.00000  
topohru00145           0.00784      30.00000      30.00000     121.00000       0.00000  
topohru00146           0.01290      30.00000      30.00000     121.00000       0.00000  
topohru00147           0.01712      30.00000      30.00000     121.00000       0.00000  
topohru00148           0.00989      30.00000      30.00000     121.00000       0.00000  
topohru00149           0.01415      30.00000      30.00000     121.00000       0.00000  
topohru00150           0.00940      30.00000      30.00000     121.00000       0.00000  
topohru00151           0.04177      30.00000      30.00000     121.00000       0.00000  
topohru00152           0.01543      30.00000      30.00000     121.00000       0.00000  
topohru00153           0.02933      30.00000      30.00000     121.00000       0.00000  
topohru00154           0.04205      30.00000      30.00000     121.00000       0.00000  
topohru00155           0.01356      30.00000      30.00000     121.00000       0.00000  
topohru00156           0.03151      30.00000      30.00000     121.00000       0.00000  
topohru00157           0.03892      30.00000      30.00000     121.00000       0.00000  
topohru00158           0.01168      30.00000      30.00000     121.00000       0.00000  
topohru00159           0.01534      30.00000      30.00000     121.00000       0.00000  
topohru00160           0.02158      30.00000      30.00000     121.00000       0.00000  
topohru00161           0.01155      30.00000      30.00000     121.00000       0.00000  
topohru00162           0.03185      30.00000      30.00000     121.00000       0.00000  
topohru00163           0.02150      30.00000      30.00000     121.00000       0.00000  
topohru00164           0.07829      30.00000      30.00000     121.00000       0.00000  
topohru00165           0.00981      30.00000      30.00000     121.00000       0.00000  
topohru00166           0.01356      30.00000      30.00000     121.00000       0.00000  
topohru00167           0.04523      30.00000      30.00000     121.00000       0.00000  
topohru00168           0.04258      30.00000      30.00000     121.00000       0.00000  
topohru00169           0.05808      30.00000      30.00000     121.00000       0.00000  
topohru00170           0.01503      30.00000      30.00000     121.00000       0.00000  
topohru00171           0.01509      30.00000      30.00000     121.00000       0.00000  
topohru00172           0.01620      30.00000      30.00000     121.00000       0.00000  
topohru00173           0.01288      30.00000      30.00000     121.00000       0.00000  
topohru00174           0.01526      30.00000      30.00000     121.00000       0.00000  
topohru00175           0.02582      30.00000      30.00000     121.00000       0.00000  
topohru00176           0.05724      30.00000      30.00000     121.00000       0.00000  
topohru00177           0.04252      30.00000      30.00000     121.00000       0.00000  
topohru00178           0.01238      30.00000      30.00000     121.00000       0.00000  
topohru00179           0.01451      30.00000      30.00000     121.00000       0.00000  
topohru00180           0.01895      30.00000      30.00000     121.00000       0.00000  
topohru00181           0.01494      30.00000      30.00000     121.00000       0.00000  
topohru00182           0.01436      30.00000      30.00000     121.00000       0.00000  
topohru00183           0.01653      30.00000      30.00000     121.00000       0.00000  
topohru00184           0.01642      30.00000      30.00000     121.00000       0.00000  
topohru00185           0.03185      30.00000      30.00000     121.00000       0.00000  
topohru00186           0.00929      30.00000      30.00000     121.00000       0.00000  
topohru00187           0.01082      30.00000      30.00000     121.00000       0.00000  
topohru00188           0.01687      30.00000      30.00000     121.00000       0.00000  
topohru00189           0.01303      30.00000      30.00000     121.00000       0.00000  
topohru00190           0.01170      30.00000      30.00000     121.00000       0.00000  
topohru00191           0.01441      30.00000      30.00000     121.00000       0.00000  
topohru00192           0.01656      30.00000      30.00000     121.00000       0.00000  
topohru00193           0.03244      30.00000      30.00000     121.00000       0.00000  
topohru00194           0.02136      30.00000      30.00000     121.00000       0.00000  
topohru00195           0.01799      30.00000      30.00000     121.00000       0.00000  
topohru00196           0.01274      30.00000      30.00000     121.00000       0.00000  
topohru00197           0.01883      30.00000      30.00000     121.00000       0.00000  
topohru00198           0.02502      30.00000      30.00000     121.00000       0.00000  
topohru00199           0.03666      30.00000      30.00000     121.00000       0.00000  
topohru00200           0.03675      30.00000      30.00000     121.00000       0.00000  
topohru00201           0.02632      30.00000      30.00000     121.00000       0.00000  
topohru00202           0.03190      30.00000      30.00000     121.00000       0.00000  
topohru00203           0.02375      30.00000      30.00000     121.00000       0.00000  
topohru00204           0.02604      30.00000      30.00000     121.00000       0.00000  
topohru00205           0.01967      30.00000      30.00000     121.00000       0.00000  
topohru00206           0.01847      30.00000      30.00000     121.00000       0.00000  
topohru00207           0.01817      30.00000      30.00000     121.00000       0.00000  
topohru00208           0.02539      30.00000      30.00000     121.00000       0.00000  
topohru00209           0.02435      30.00000      30.00000     121.00000       0.00000  
topohru00210           0.01605      30.00000      30.00000     121.00000       0.00000  
topohru00211           0.01161      30.00000      30.00000     121.00000       0.00000  
topohru00212           0.03883      30.00000      30.00000     121.00000       0.00000  
topohru00213           0.05211      30.00000      30.00000     121.00000       0.00000  
topohru00214           0.00859      30.00000      30.00000     121.00000       0.00000  
topohru00215           0.02304      30.00000      30.00000     121.00000       0.00000  
topohru00216           0.02963      30.00000      30.00000     121.00000       0.00000  
topohru00217           0.02527      30.00000      30.00000     121.00000       0.00000  
topohru00218           0.02222      30.00000      30.00000     121.00000       0.00000  
topohru00219           0.04246      30.00000      30.00000     121.00000       0.00000  
topohru00220           0.01055      30.00000      30.00000     121.00000       0.00000  
topohru00221           0.03719      30.00000      30.00000     121.00000       0.00000  
topohru00222           0.04642      30.00000      30.00000     121.00000       0.00000  
topohru00223           0.01498      30.00000      30.00000     121.00000       0.00000  
topohru00224           0.01639      30.00000      30.00000     121.00000       0.00000  
topohru00225           0.01744      30.00000      30.00000     121.00000       0.00000  
topohru00226           0.03022      30.00000      30.00000     121.00000       0.00000  
topohru00227           0.02200      30.00000      30.00000     121.00000       0.00000  
topohru00228           0.00810      30.00000      30.00000     121.00000       0.00000  
topohru00229           0.01851      30.00000      30.00000     121.00000       0.00000  
topohru00230           0.00902      30.00000      30.00000     121.00000       0.00000  
topohru00231           0.00865      30.00000      30.00000     121.00000       0.00000  
topohru00232           0.03474      30.00000      30.00000     121.00000       0.00000  
topohru00233           0.01108      30.00000      30.00000     121.00000       0.00000  
topohru00234           0.01282      30.00000      30.00000     121.00000       0.00000  
topohru00235           0.01233      30.00000      30.00000     121.00000       0.00000  
topohru00236           0.02165      30.00000      30.00000     121.00000       0.00000  
topohru00237           0.00849      30.00000      30.00000     121.00000       0.00000  
topohru00238           0.00704      30.00000      30.00000     121.00000       0.00000  
topohru00239           0.01118      30.00000      30.00000     121.00000       0.00000  
topohru00240           0.01812      30.00000      30.00000     121.00000       0.00000  
topohru00241           0.01982      30.00000      30.00000     121.00000       0.00000  
topohru00242           0.01258      30.00000      30.00000     121.00000       0.00000  
topohru00243           0.04815      30.00000      30.00000     121.00000       0.00000  
topohru00244           0.01705      30.00000      30.00000     121.00000       0.00000  
topohru00245           0.02273      30.00000      30.00000     121.00000       0.00000  
topohru00246           0.02264      30.00000      30.00000     121.00000       0.00000  
topohru00247           0.08319      30.00000      30.00000     121.00000       0.00000  
topohru00248           0.02429      30.00000      30.00000     121.00000       0.00000  
topohru00249           0.01931      30.00000      30.00000     121.00000       0.00000  
topohru00250           0.01637      30.00000      30.00000     121.00000       0.00000  
topohru00251           0.03032      30.00000      30.00000     121.00000       0.00000  
topohru00252           0.02650      30.00000      30.00000     121.00000       0.00000  
topohru00253           0.02488      30.00000      30.00000     121.00000       0.00000  
topohru00254           0.02255      30.00000      30.00000     121.00000       0.00000  
topohru00255           0.01102      30.00000      30.00000     121.00000       0.00000  
topohru00256           0.03247      30.00000      30.00000     121.00000       0.00000  
topohru00257           0.01409      30.00000      30.00000     121.00000       0.00000  
topohru00258           0.01313      30.00000      30.00000     121.00000       0.00000  
topohru00259           0.02404      30.00000      30.00000     121.00000       0.00000  
topohru00260           0.01653      30.00000      30.00000     121.00000       0.00000  
topohru00261           0.02119      30.00000      30.00000     121.00000       0.00000  
topohru00262           0.02264      30.00000      30.00000     121.00000       0.00000  
topohru00263           0.01656      30.00000      30.00000     121.00000       0.00000  
topohru00264           0.03935      30.00000      30.00000     121.00000       0.00000  
topohru00265           0.01190      30.00000      30.00000     121.00000       0.00000  
topohru00266           0.04194      30.00000      30.00000     121.00000       0.00000  
topohru00267           0.02076      30.00000      30.00000     121.00000       0.00000  
topohru00268           0.02475      30.00000      30.00000     121.00000       0.00000  
topohru00269           0.03067      30.00000      30.00000     121.00000       0.00000  
topohru00270           0.03264      30.00000      30.00000     121.00000       0.00000  
topohru00271           0.04574      30.00000      30.00000     121.00000       0.00000  
topohru00272           0.04598      30.00000      30.00000     121.00000       0.00000  
topohru00273           0.03022      30.00000      30.00000     121.00000       0.00000  
topohru00274           0.02152      30.00000      30.00000     121.00000       0.00000  
topohru00275           0.02200      30.00000      30.00000     121.00000       0.00000  
topohru00276           0.02463      30.00000      30.00000     121.00000       0.00000  
topohru00277           0.01023      30.00000      30.00000     121.00000       0.00000  
topohru00278           0.01500      30.00000      30.00000     121.00000       0.00000  
topohru00279           0.03849      30.00000      30.00000     121.00000       0.00000  
topohru00280           0.02885      30.00000      30.00000     121.00000       0.00000  
topohru00281           0.01829      30.00000      30.00000     121.00000       0.00000  
topohru00282           0.02820      30.00000      30.00000     121.00000       0.00000  
topohru00283           0.02156      30.00000      30.00000     121.00000       0.00000  
topohru00284           0.01539      30.00000      30.00000     121.00000       0.00000  
topohru00285           0.02206      30.00000      30.00000     121.00000       0.00000  
topohru00286           0.02567      30.00000      30.00000     121.00000       0.00000  
topohru00287           0.04385      30.00000      30.00000     121.00000       0.00000  
topohru00288           0.05493      30.00000      30.00000     121.00000       0.00000  
topohru00289           0.02613      30.00000      30.00000     121.00000       0.00000  
topohru00290           0.02001      30.00000      30.00000     121.00000       0.00000  
topohru00291           0.01481      30.00000      30.00000     121.00000       0.00000  
topohru00292           0.01681      30.00000      30.00000     121.00000       0.00000  
topohru00293           0.02524      30.00000      30.00000     121.00000       0.00000  
topohru00294           0.03527      30.00000      30.00000     121.00000       0.00000  
topohru00295           0.02066      30.00000      30.00000     121.00000       0.00000  
topohru00296           0.02644      30.00000      30.00000     121.00000       0.00000  
topohru00297           0.02996      30.00000      30.00000     121.00000       0.00000  
topohru00298           0.01200      30.00000      30.00000     121.00000       0.00000  
topohru00299           0.01383      30.00000      30.00000     121.00000       0.00000  
topohru00300           0.01339      30.00000      30.00000     121.00000       0.00000  
topohru00301           0.01526      30.00000      30.00000     121.00000       0.00000  
topohru00302           0.01515      30.00000      30.00000     121.00000       0.00000  
topohru00303           0.01279      30.00000      30.00000     121.00000       0.00000  
topohru00304           0.02049      30.00000      30.00000     121.00000       0.00000  
topohru00305           0.02856      30.00000      30.00000     121.00000       0.00000  
topohru00306           0.01354      30.00000      30.00000     121.00000       0.00000  
topohru00307           0.02417      30.00000      30.00000     121.00000       0.00000  
topohru00308           0.00944      30.00000      30.00000     121.00000       0.00000  
topohru00309           0.02418      30.00000      30.00000     121.00000       0.00000  
topohru00310           0.07613      30.00000      30.00000     121.00000       0.00000  
topohru00311           0.04653      30.00000      30.00000     121.00000       0.00000  
topohru00312           0.02110      30.00000      30.00000     121.00000       0.00000  
topohru00313           0.01301      30.00000      30.00000     121.00000       0.00000  
topohru00314           0.01511      30.00000      30.00000     121.00000       0.00000  
topohru00315           0.02492      30.00000      30.00000     121.00000       0.00000  
topohru00316           0.03006      30.00000      30.00000     121.00000       0.00000  
topohru00317           0.01834      30.00000      30.00000     121.00000       0.00000  
topohru00318           0.01205      30.00000      30.00000     121.00000       0.00000  
topohru00319           0.01563      30.00000      30.00000     121.00000       0.00000  
topohru00320           0.03550      30.00000      30.00000     121.00000       0.00000  
topohru00321           0.01366      30.00000      30.00000     121.00000       0.00000  
topohru00322           0.01483      30.00000      30.00000     121.00000       0.00000  
topohru00323           0.02102      30.00000      30.00000     121.00000       0.00000  
topohru00324           0.05127      30.00000      30.00000     121.00000       0.00000  
topohru00325           0.02515      30.00000      30.00000     121.00000       0.00000  
topohru00326           0.02248      30.00000      30.00000     121.00000       0.00000  
topohru00327           0.07306      30.00000      30.00000     121.00000       0.00000  
topohru00328           0.01811      30.00000      30.00000     121.00000       0.00000  
topohru00329           0.06182      30.00000      30.00000     121.00000       0.00000  
topohru00330           0.01583      30.00000      30.00000     121.00000       0.00000  
topohru00331           0.03006      30.00000      30.00000     121.00000       0.00000  
topohru00332           0.03236      30.00000      30.00000     121.00000       0.00000  
topohru00333           0.03292      30.00000      30.00000     121.00000       0.00000  
topohru00334           0.02801      30.00000      30.00000     121.00000       0.00000  
topohru00335           0.04453      30.00000      30.00000     121.00000       0.00000  