weather-wgn.cli: written by SWAT+ editor v2.1.0 on 2024-10-10 09:02 for SWAT+ rev.2.1.4
ID1                            52.66000      18.60000      89.90000        26  
 tmp_max_ave   tmp_min_ave    tmp_max_sd    tmp_min_sd       pcp_ave        pcp_sd      pcp_skew       wet_dry       wet_wet      pcp_days       pcp_hhr       slr_ave       dew_ave       wnd_ave  
     1.60089      -3.31267       4.87804       5.75112       0.99765       1.80302       3.50161       0.46018       0.81865      22.26923       6.59841       2.23824       0.88535       2.99369  
     3.44423      -2.70740       4.83356       5.30892       0.93046       1.96804       3.96745       0.46383       0.76858      18.11538       6.81687       4.91286       0.86514       3.03013  
     8.01205      -0.52424       5.04936       4.23247       0.92687       2.15922       4.14374       0.34185       0.76623      17.76923       7.61203       9.53764       0.80929       2.89495  
    14.93744       3.62383       5.17488       3.69256       0.90331       2.37144       5.35596       0.33237       0.71287      15.53846      10.44926      15.92251       0.72182       2.74634  
    20.07193       8.01910       4.78218       3.67869       1.71920       4.03472       4.27601       0.36972       0.78411      18.88462      17.27486      19.30414       0.72034       2.44884  
    23.59889      11.39253       4.53687       3.16790       1.90753       4.75581       6.09852       0.45263       0.72043      17.88462      25.91040      21.00996       0.72274       2.34453  
    25.70731      13.57625       4.28807       2.78590       2.75419       5.93584       3.28685       0.45306       0.78868      20.38462      16.11915      18.95544       0.74035       2.25258  
    25.34194      13.19803       4.21225       2.88683       1.69929       3.65947       3.25770       0.42424       0.73431      18.38462      11.91840      16.77606       0.74342       2.17255  
    20.07497       9.30076       4.41157       3.15700       1.34589       3.32911       4.41217       0.35604       0.72834      16.42308      12.15699      11.72669       0.79511       2.31800  
    13.67983       5.46124       4.40851       3.90011       1.14559       2.73053       4.33151       0.41065       0.78906      19.69231       9.22706       6.46405       0.84741       2.41642  
     7.09428       1.82899       4.25913       3.81032       1.05995       2.26404       3.63304       0.53917       0.77861      20.50000       7.04938       2.62998       0.89135       2.55709  
     2.96915      -1.70838       4.39437       4.93423       0.99467       2.04531       3.63935       0.54460       0.79359      21.61538       6.41073       1.66466       0.88963       2.82146  
ID10                           52.63000      18.74000      95.30000        26  
 tmp_max_ave   tmp_min_ave    tmp_max_sd    tmp_min_sd       pcp_ave        pcp_sd      pcp_skew       wet_dry       wet_wet      pcp_days       pcp_hhr       slr_ave       dew_ave       wnd_ave  
     1.59504      -3.37226       4.87384       5.82899       1.01475       1.80499       3.16251       0.46018       0.81865      22.26923       6.37958       2.25828       0.87947       3.24025  
     3.44049      -2.79827       4.82190       5.39926       0.94602       1.91177       3.60120       0.46383       0.76858      18.11538       6.36894       4.93703       0.85762       3.28212  
     8.02869      -0.63689       5.04648       4.30170       0.91731       2.06964       3.87818       0.34185       0.76623      17.76923       6.98821       9.58653       0.79888       3.15353  
    14.96522       3.56963       5.21871       3.74521       0.91451       2.29573       4.85891       0.33237       0.71287      15.53846       9.36915      15.99811       0.72087       2.98692  
    20.12563       7.91630       4.85842       3.72036       1.70456       3.93376       4.14576       0.36972       0.78411      18.88462      16.11687      19.38220       0.70740       2.66827  
    23.65600      11.29435       4.60723       3.21461       1.92967       4.81931       6.13303       0.45263       0.72043      17.88462      25.91040      21.09966       0.70918       2.55704  
    25.73415      13.51146       4.34238       2.84716       2.69597       5.78841       3.30497       0.45306       0.78868      20.38462      16.40409      19.05037       0.72975       2.46726  
    25.37169      13.08913       4.25463       2.89572       1.74939       3.86658       3.38989       0.42424       0.73431      18.38462      11.28090      16.86334       0.73054       2.38356  
    20.10277       9.19189       4.44511       3.21245       1.33258       3.34026       4.41492       0.35604       0.72834      16.42308      11.58218      11.78997       0.78167       2.54023  
    13.67916       5.39612       4.41823       3.95057       1.13212       2.69864       4.39325       0.41065       0.78906      19.69231       9.50630       6.50188       0.83848       2.65942  
     7.11046       1.81625       4.28811       3.86316       1.03876       2.17662       3.53446       0.53917       0.77861      20.50000       7.29746       2.66056       0.88338       2.82557  
     2.96868      -1.74859       4.43545       4.99907       1.00359       2.01073       3.62184       0.54460       0.79359      21.61538       7.22148       1.68619       0.88460       3.08158  
ID11                           52.63000      18.56000      96.10000        26  
 tmp_max_ave   tmp_min_ave    tmp_max_sd    tmp_min_sd       pcp_ave        pcp_sd      pcp_skew       wet_dry       wet_wet      pcp_days       pcp_hhr       slr_ave       dew_ave       wnd_ave  
     1.60986      -3.29289       4.88581       5.73018       0.97895       1.78988       3.61928       0.46018       0.81865      22.26923       6.62995       2.25579       0.88472       3.01059  
     3.45042      -2.68694       4.83545       5.28803       0.91378       1.96026       4.09549       0.46383       0.76858      18.11538       7.25567       4.93254       0.86503       3.04777  
     8.01486      -0.50292       5.04827       4.21801       0.90817       2.15092       4.22373       0.34185       0.76623      17.76923       7.68650       9.56682       0.80988       2.91434  
    14.93755       3.63648       5.17061       3.68579       0.87808       2.34923       5.56865       0.33237       0.71287      15.53846      10.47547      15.96836       0.72355       2.76044  
    20.06416       8.02017       4.78897       3.66940       1.69622       3.99185       4.26130       0.36972       0.78411      18.88462      16.97435      19.35958       0.71993       2.46277  
    23.60222      11.41881       4.53697       3.15073       1.88925       4.72102       6.10557       0.45263       0.72043      17.88462      25.91040      21.08240       0.72011       2.35374  
    25.69246      13.59154       4.27984       2.78771       2.73564       5.93831       3.29474       0.45306       0.78868      20.38462      15.43302      19.03269       0.73977       2.26414  
    25.32722      13.22687       4.20543       2.87694       1.69878       3.70803       3.29361       0.42424       0.73431      18.38462      11.75162      16.84010       0.74248       2.18225  
    20.06878       9.32504       4.40862       3.14307       1.31522       3.27680       4.47690       0.35604       0.72834      16.42308      12.48942      11.77085       0.79341       2.33048  
    13.67731       5.48305       4.40761       3.89963       1.14094       2.74374       4.30377       0.41065       0.78906      19.69231       9.12145       6.49353       0.84614       2.42737  
     7.11240       1.84181       4.25294       3.80289       1.04442       2.25197       3.70115       0.53917       0.77861      20.50000       7.21236       2.65558       0.89169       2.56419  
     2.98175      -1.68850       4.39119       4.91574       0.97474       2.01416       3.77984       0.54460       0.79359      21.61538       6.94224       1.68342       0.88873       2.83053  
ID12                           52.63000      18.59000      92.60000        26  
 tmp_max_ave   tmp_min_ave    tmp_max_sd    tmp_min_sd       pcp_ave        pcp_sd      pcp_skew       wet_dry       wet_wet      pcp_days       pcp_hhr       slr_ave       dew_ave       wnd_ave  
     1.60751      -3.30245       4.88532       5.74943       0.99121       1.79198       3.56191       0.46018       0.81865      22.26923       6.65008       2.25845       0.88315       3.05802  
     3.44867      -2.70275       4.83603       5.30568       0.92173       1.94020       3.97855       0.46383       0.76858      18.11538       6.97947       4.93627       0.86281       3.09662  
     8.02020      -0.52590       5.05086       4.23141       0.91609       2.13468       4.15012       0.34185       0.76623      17.76923       7.47754       9.57840       0.80665       2.96268  
    14.94711       3.62756       5.18253       3.69865       0.89355       2.34715       5.45641       0.33237       0.71287      15.53846      10.40405      15.98603       0.72253       2.80556  
    20.08435       8.00035       4.80907       3.67625       1.69875       3.94700       4.23002       0.36972       0.78411      18.88462      16.80453      19.37477       0.71657       2.50406  
    23.61922      11.39237       4.55993       3.16383       1.89743       4.70456       6.13864       0.45263       0.72043      17.88462      25.91040      21.09653       0.71759       2.39482  
    25.70835      13.57668       4.29718       2.80035       2.72876       5.78850       3.12172       0.45306       0.78868      20.38462      14.11471      19.04738       0.73718       2.30545  
    25.34283      13.20207       4.22095       2.87990       1.70689       3.66440       3.26069       0.42424       0.73431      18.38462      11.72009      16.85629       0.73942       2.22263  
    20.08205       9.30308       4.42221       3.15605       1.32625       3.27294       4.39682       0.35604       0.72834      16.42308      11.97653      11.78346       0.79062       2.37300  
    13.68128       5.46981       4.41226       3.90879       1.14334       2.72701       4.31269       0.41065       0.78906      19.69231       9.15032       6.49992       0.84443       2.47538  
     7.11580       1.84022       4.26088       3.81317       1.04799       2.23423       3.66302       0.53917       0.77861      20.50000       7.17057       2.66005       0.88915       2.61741  
     2.98047      -1.69473       4.39946       4.92731       0.98360       1.99429       3.57165       0.54460       0.79359      21.61538       6.23483       1.68630       0.88759       2.88196  
ID13                           52.63000      18.62000      91.40000        26  
 tmp_max_ave   tmp_min_ave    tmp_max_sd    tmp_min_sd       pcp_ave        pcp_sd      pcp_skew       wet_dry       wet_wet      pcp_days       pcp_hhr       slr_ave       dew_ave       wnd_ave  
     1.60622      -3.31363       4.88457       5.77034       0.99879       1.80021       3.49816       0.46018       0.81865      22.26923       6.65046       2.26088       0.88132       3.10476  
     3.44676      -2.72172       4.83485       5.32741       0.92659       1.92314       3.86904       0.46383       0.76858      18.11538       6.76596       4.93962       0.86061       3.14461  
     8.02534      -0.55276       5.05100       4.24983       0.91931       2.11906       4.07659       0.34185       0.76623      17.76923       7.26099       9.58831       0.80367       3.01063  
    14.95766       3.61290       5.19596       3.71577       0.90538       2.34683       5.32636       0.33237       0.71287      15.53846      10.29045      16.00119       0.72249       2.85050  
    20.10470       7.97277       4.83404       3.68837       1.69638       3.90953       4.17611       0.36972       0.78411      18.88462      16.48388      19.38804       0.71305       2.54495  
    23.63986      11.36379       4.58644       3.17900       1.90577       4.73771       6.12138       0.45263       0.72043      17.88462      25.91040      21.10923       0.71431       2.43575  
    25.72170      13.55756       4.31547       2.81769       2.72043       5.73576       3.05920       0.45306       0.78868      20.38462      13.37007      19.06067       0.73449       2.34655  
    25.35686      13.17285       4.23792       2.88346       1.71667       3.67761       3.28444       0.42424       0.73431      18.38462      11.65892      16.87052       0.73626       2.26297  
    20.09461       9.27775       4.43551       3.17036       1.33170       3.28665       4.34261       0.35604       0.72834      16.42308      11.50049      11.79445       0.78740       2.41535  
    13.68424       5.45442       4.41622       3.92116       1.14218       2.71698       4.34253       0.41065       0.78906      19.69231       9.18717       6.50559       0.84233       2.52295  
     7.12175       1.83717       4.26818       3.82558       1.04723       2.21454       3.62006       0.53917       0.77861      20.50000       7.15423       2.66414       0.88649       2.67044  
     2.98101      -1.70100       4.40845       4.94010       0.98913       1.98276       3.43700       0.54460       0.79359      21.61538       6.14327       1.68899       0.88611       2.93316  
ID14                           52.62000      18.65000      92.90000        26  
 tmp_max_ave   tmp_min_ave    tmp_max_sd    tmp_min_sd       pcp_ave        pcp_sd      pcp_skew       wet_dry       wet_wet      pcp_days       pcp_hhr       slr_ave       dew_ave       wnd_ave  
     1.60526      -3.32531       4.88419       5.79064       1.00288       1.81425       3.42443       0.46018       0.81865      22.26923       6.62767       2.26309       0.87973       3.15052  
     3.44499      -2.74101       4.83377       5.34985       0.92951       1.91222       3.76523       0.46383       0.76858      18.11538       6.60639       4.94254       0.85885       3.19144  
     8.02982      -0.57959       5.05082       4.27019       0.91895       2.10537       4.00713       0.34185       0.76623      17.76923       7.03874       9.59616       0.80135       3.05803  
    14.96829       3.59656       5.20988       3.73574       0.91393       2.34739       5.18255       0.33237       0.71287      15.53846      10.13089      16.01323       0.72290       2.89509  
    20.12360       7.94509       4.85910       3.70508       1.69251       3.89273       4.11382       0.36972       0.78411      18.88462      16.07128      19.39896       0.70993       2.58545  
    23.66047      11.33690       4.61331       3.19613       1.91467       4.82639       6.09669       0.45263       0.72043      17.88462      25.91040      21.12018       0.71103       2.47607  
    25.73309      13.53816       4.33397       2.83694       2.71464       5.79497       3.11181       0.45306       0.78868      20.38462      13.59726      19.07210       0.73216       2.38697  
    25.36979      13.14295       4.25543       2.88848       1.72841       3.74610       3.37000       0.42424       0.73431      18.38462      11.57458      16.88235       0.73339       2.30282  
    20.10549       9.25209       4.44765       3.18605       1.33334       3.32229       4.34236       0.35604       0.72834      16.42308      11.15553      11.80343       0.78436       2.45711  
    13.68690       5.43857       4.42020       3.93496       1.13876       2.71599       4.40743       0.41065       0.78906      19.69231       9.23694       6.51044       0.84036       2.56945  
     7.12776       1.83320       4.27573       3.83954       1.04364       2.19672       3.57628       0.53917       0.77861      20.50000       7.16259       2.66774       0.88431       2.72250  
     2.98169      -1.70765       4.41762       4.95374       0.99229       1.98222       3.37199       0.54460       0.79359      21.61538       6.03120       1.69140       0.88479       2.98328  
ID15                           52.62000      18.68000      89.40000        26  
 tmp_max_ave   tmp_min_ave    tmp_max_sd    tmp_min_sd       pcp_ave        pcp_sd      pcp_skew       wet_dry       wet_wet      pcp_days       pcp_hhr       slr_ave       dew_ave       wnd_ave  
     1.60355      -3.33636       4.88376       5.80696       1.00539       1.82666       3.34129       0.45022       0.81707      22.07692       6.57790       2.26500       0.87889       3.19491  
     3.44361      -2.75765       4.83294       5.36826       0.93217       1.90856       3.67796       0.46091       0.75810      17.80769       6.49204       4.94491       0.85773       3.23670  
     8.03294      -0.60092       5.05145       4.28626       0.91692       2.09265       3.94672       0.34043       0.74664      17.15385       6.87157       9.60161       0.79975       3.10460  
    14.97550       3.58503       5.22032       3.75068       0.91922       2.34360       5.04212       0.31373       0.71247      15.11538       9.92307      16.02170       0.72281       2.93897  
    20.13626       7.92732       4.87477       3.71851       1.69141       3.89850       4.07870       0.36393       0.76170      18.07692      15.75329      19.40722       0.70777       2.62525  
    23.67315      11.31745       4.63085       3.21010       1.92099       4.91262       6.10617       0.44898       0.70833      17.53846      25.91040      21.12913       0.70883       2.51530  
    25.74110      13.52468       4.34749       2.85076       2.71141       5.89258       3.20871       0.43922       0.78269      20.00000      14.47373      19.08149       0.73044       2.42624  
    25.37901      13.11947       4.26755       2.89308       1.73995       3.83350       3.46670       0.42475       0.73109      18.30769      12.21892      16.89146       0.73126       2.34169  
    20.11203       9.23046       4.45553       3.19956       1.33239       3.36228       4.38946       0.35843       0.71292      16.07692      10.99064      11.81016       0.78213       2.49764  
    13.68859       5.42491       4.42339       3.94544       1.13487       2.72121       4.49733       0.41241       0.77445      19.26923       9.30305       6.51429       0.83890       2.61417  
     7.12989       1.82965       4.28282       3.85155       1.03953       2.18418       3.54392       0.54464       0.76616      20.23077       7.19412       2.67075       0.88308       2.77271  
     2.98049      -1.71536       4.42556       4.96703       0.99432       1.98972       3.37451       0.53425       0.78957      21.38462       6.14327       1.69350       0.88404       3.03159  
ID16                           52.62000      18.71000      90.50000        26  
 tmp_max_ave   tmp_min_ave    tmp_max_sd    tmp_min_sd       pcp_ave        pcp_sd      pcp_skew       wet_dry       wet_wet      pcp_days       pcp_hhr       slr_ave       dew_ave       wnd_ave  
     1.60096      -3.34691       4.88272       5.81793       1.00830       1.82734       3.25664       0.45022       0.81707      22.07692       6.50153       2.26660       0.87877       3.23779  
     3.44265      -2.77149       4.83144       5.38129       0.93626       1.90772       3.61801       0.45714       0.75705      17.73077       6.41567       4.94676       0.85716       3.28023  
     8.03421      -0.61532       5.05216       4.29538       0.91508       2.07931       3.89996       0.33939       0.74607      17.11538       6.92324       9.60464       0.79866       3.15008  
    14.97697       3.58022       5.22476       3.75562       0.92051       2.32950       4.92312       0.31373       0.71247      15.11538       9.66853      16.02647       0.72195       2.98196  
    20.13960       7.92143       4.87735       3.72356       1.69528       3.91522       4.07722       0.36156       0.76068      18.00000      15.69631      19.41265       0.70659       2.66421  
    23.67443      11.30725       4.63338       3.21668       1.92309       4.92370       6.11912       0.43624       0.71018      17.38462      25.91040      21.13595       0.70786       2.55303  
    25.74358      13.51930       4.35263       2.85543       2.70711       5.92504       3.27866       0.43798       0.77950      19.88462      14.59682      19.08871       0.72925       2.46405  
    25.38180      13.10545       4.27021       2.89506       1.74836       3.89201       3.48855       0.42105       0.72611      18.11538      12.45029      16.89767       0.72985       2.37926  
    20.11258       9.21421       4.45725       3.20807       1.33025       3.37723       4.43225       0.36070       0.69682      15.73077      11.01420      11.81452       0.78089       2.53680  
    13.68805       5.41461       4.42460       3.95059       1.13194       2.71912       4.52316       0.41007       0.77062      19.11538       9.38701       6.51710       0.83811       2.65668  
     7.12721       1.82705       4.28829       3.85933       1.03665       2.17670       3.52952       0.53509       0.76437      20.07692       7.24845       2.67313       0.88271       2.82049  
     2.97722      -1.72461       4.43168       4.97919       0.99653       1.99858       3.44583       0.53363       0.78442      21.23077       6.69605       1.69527       0.88397       3.07751  
ID17                           52.62000      18.74000      94.40000        26  
 tmp_max_ave   tmp_min_ave    tmp_max_sd    tmp_min_sd       pcp_ave        pcp_sd      pcp_skew       wet_dry       wet_wet      pcp_days       pcp_hhr       slr_ave       dew_ave       wnd_ave  
     1.59794      -3.35795       4.88106       5.82482       1.01262       1.81606       3.17018       0.46018       0.81865      22.26923       6.40162       2.26792       0.87900       3.27878  
     3.44186      -2.78414       4.82914       5.39085       0.94258       1.90818       3.57971       0.46383       0.76858      18.11538       6.37046       4.94804       0.85686       3.32172  
     8.03360      -0.62527       5.05217       4.29972       0.91445       2.06718       3.86854       0.33968       0.76522      17.69231       6.98327       9.60521       0.79782       3.19389  
    14.97319       3.57962       5.22408       3.75278       0.91734       2.30659       4.82862       0.33141       0.71216      15.50000       9.37751      16.02751       0.72064       3.02351  
    20.13445       7.92286       4.87030       3.72259       1.70194       3.93890       4.11149       0.37413       0.77914      18.80769      15.87753      19.41529       0.70603       2.70188  
    23.66654      11.30419       4.62329       3.21698       1.92535       4.87429       6.12708       0.44599       0.72138      17.80769      25.91040      21.14064       0.70767       2.58905  
    25.73989      13.51978       4.35063       2.85344       2.69844       5.88115       3.34021       0.44939       0.78788      20.30769      16.34635      19.09375       0.72846       2.50011  
    25.37791      13.09882       4.26452       2.89485       1.75343       3.91683       3.44742       0.42617       0.73166      18.34615      11.57420      16.90100       0.72888       2.41526  
    20.10765       9.20190       4.45336       3.21256       1.32881       3.36331       4.44570       0.35276       0.72642      16.30769      11.53583      11.81650       0.78019       2.57425  
    13.68488       5.40678       4.42385       3.95221       1.13031       2.70718       4.45426       0.40824       0.78543      19.53846       9.48693       6.51888       0.83765       2.69656  
     7.12130       1.82490       4.29216       3.86400       1.03538       2.17311       3.53360       0.54299       0.77127      20.34615       7.32292       2.67491       0.88275       2.86535  
     2.97286      -1.73543       4.43646       4.99052       1.00029       2.00832       3.57709       0.54460       0.79359      21.61538       7.20704       1.69667       0.88419       3.12064  
ID18                           52.61000      18.56000      95.20000        26  
 tmp_max_ave   tmp_min_ave    tmp_max_sd    tmp_min_sd       pcp_ave        pcp_sd      pcp_skew       wet_dry       wet_wet      pcp_days       pcp_hhr       slr_ave       dew_ave       wnd_ave  
     1.61315      -3.28822       4.89037       5.72580       0.98335       1.79075       3.62007       0.46018       0.81865      22.26923       6.67440       2.26551       0.88401       3.04932  
     3.45388      -2.68481       4.83685       5.28448       0.91546       1.94976       4.05829       0.46383       0.76858      18.11538       7.19564       4.94346       0.86414       3.08754  
     8.01881      -0.50066       5.04978       4.21473       0.90917       2.14161       4.19571       0.34185       0.76623      17.76923       7.56226       9.58366       0.80884       2.95602  
    14.93953       3.64266       5.17203       3.68469       0.87921       2.34302       5.58313       0.33237       0.71287      15.53846      10.46180      15.99475       0.72364       2.79683  
    20.06420       8.01708       4.79603       3.66668       1.69269       3.96087       4.25396       0.36972       0.78411      18.88462      16.82162      19.39090       0.71849       2.49663  
    23.60643      11.42659       4.54132       3.14537       1.88689       4.69782       6.13565       0.45263       0.72043      17.88462      25.91040      21.12277       0.71781       2.38385  
    25.68759      13.59815       4.28056       2.79179       2.72593       5.85821       3.23412       0.45306       0.78868      20.38462      14.67205      19.07572       0.73831       2.29593  
    25.32169      13.23517       4.20437       2.87179       1.70579       3.70521       3.29313       0.42424       0.73431      18.38462      11.67222      16.87614       0.74061       2.21256  
    20.06689       9.32797       4.41029       3.14000       1.31222       3.25757       4.46406       0.35604       0.72834      16.42308      12.42027      11.79584       0.79129       2.36367  
    13.67587       5.48947       4.40902       3.90310       1.14406       2.74831       4.32159       0.41065       0.78906      19.69231       9.08915       6.51003       0.84470       2.46192  
     7.12180       1.84881       4.25429       3.80346       1.04400       2.24343       3.70736       0.53917       0.77861      20.50000       7.23857       2.66978       0.89107       2.59936  
     2.98674      -1.68318       4.39428       4.91251       0.97633       2.00231       3.72446       0.54460       0.79359      21.61538       6.78989       1.69379       0.88793       2.86587  
ID19                           52.61000      18.59000      94.10000        26  
 tmp_max_ave   tmp_min_ave    tmp_max_sd    tmp_min_sd       pcp_ave        pcp_sd      pcp_skew       wet_dry       wet_wet      pcp_days       pcp_hhr       slr_ave       dew_ave       wnd_ave  
     1.61062      -3.29624       4.89056       5.74538       0.99463       1.79449       3.56578       0.46018       0.81865      22.26923       6.69453       2.26812       0.88241       3.09817  
     3.45115      -2.69879       4.83859       5.30185       0.92249       1.92982       3.94627       0.46383       0.76858      18.11538       6.94224       4.94717       0.86184       3.13790  
     8.02421      -0.52233       5.05295       4.22979       0.91611       2.12610       4.12356       0.34185       0.76623      17.76923       7.35787       9.59523       0.80549       3.00556  
    14.95021       3.63370       5.18503       3.70034       0.89372       2.34247       5.46892       0.33237       0.71287      15.53846      10.39113      16.01252       0.72265       2.84335  
    20.08586       7.99888       4.81776       3.67567       1.69531       3.92345       4.21778       0.36972       0.78411      18.88462      16.64078      19.40609       0.71500       2.53916  
    23.62475      11.40049       4.56642       3.16045       1.89470       4.69147       6.16125       0.45263       0.72043      17.88462      25.91040      21.13681       0.71535       2.42640  
    25.70505      13.58348       4.29987       2.80546       2.72105       5.73735       3.08739       0.45306       0.78868      20.38462      13.95210      19.09029       0.73563       2.33861  
    25.33943      13.20993       4.22237       2.87582       1.71367       3.67034       3.26632       0.42424       0.73431      18.38462      11.63308      16.89232       0.73753       2.25433  
    20.08119       9.30659       4.42510       3.15410       1.32278       3.25817       4.38120       0.35604       0.72834      16.42308      11.92068      11.80844       0.78855       2.40758  
    13.68118       5.47667       4.41464       3.91240       1.14565       2.72938       4.31440       0.41065       0.78906      19.69231       9.11537       6.51642       0.84303       2.51164  
     7.12565       1.84731       4.26324       3.81437       1.04680       2.22628       3.66712       0.53917       0.77861      20.50000       7.20590       2.67428       0.88843       2.65474  
     2.98526      -1.68804       4.40252       4.92353       0.98437       1.98544       3.53601       0.54460       0.79359      21.61538       6.19076       1.69671       0.88680       2.91935  
ID2                            52.66000      18.63000      89.10000        26  
 tmp_max_ave   tmp_min_ave    tmp_max_sd    tmp_min_sd       pcp_ave        pcp_sd      pcp_skew       wet_dry       wet_wet      pcp_days       pcp_hhr       slr_ave       dew_ave       wnd_ave  
     1.59964      -3.32660       4.87566       5.76955       1.00392       1.79988       3.45525       0.46018       0.81865      22.26923       6.59651       2.24073       0.88373       3.03791  
     3.44362      -2.72854       4.82979       5.32888       0.93521       1.95043       3.88963       0.46383       0.76858      18.11538       6.65806       4.91634       0.86318       3.07548  