aqu_catunit.ele: written by SWAT+ editor v2.1.0 on 2024-09-05 13:48 for SWAT+ rev.60.5.4
      id  name                   obj_typ  obj_typ_no      bsn_frac      sub_frac      reg_frac  
       1  aqu1                       aqu           1       1.00988       0.00000       0.00000  
