chandeg.con: written by SWAT+ editor v2.1.0 on 2024-09-05 13:47 for SWAT+ rev.60.5.4
      id  name                gis_id          area           lat           lon          elev      lcha               wst       cst      ovfl      rule   out_tot       obj_typ    obj_id       hyd_typ          frac  
       1  cha001                   0      71.80400      55.50903      23.78151      79.93496         1            D15040         0         0         0         1           sdc         9           tot       1.00000  
       2  cha002                   0       0.13730      55.56806      23.73138     101.11563         2            D15030         0         0         0         1           sdc        52           tot       1.00000  
       3  cha003                   0       9.67289      55.49171      23.76726      90.82318         3            D15040         0         0         0         1           sdc       448           tot       1.00000  
       4  cha004                   0      18.21300      55.49003      23.77594      87.47875         4            D15040         0         0         0         1           sdc       417           tot       1.00000  
       5  cha005                   0      19.89400      55.54744      23.77092      87.30107         5            D15036         0         0         0         1           sdc       230           tot       1.00000  
       6  cha006                   0       9.10790      55.48766      23.75687      93.81868         6            D15040         0         0         0         1           sdc       340           tot       1.00000  
       7  cha007                   0       1.00780      55.53935      23.81535      85.86676         7             D9804         0         0         0         1           sdc       364           tot       1.00000  
       8  cha008                   0       0.90710      55.54170      23.81755      86.17941         8             D9804         0         0         0         1           sdc         7           tot       1.00000  
       9  cha009                   0      72.06432      55.50589      23.78248      79.90017         9            D15040         0         0         0         1           sdc       595           tot       1.00000  
      10  cha010                   0       0.96055      55.56655      23.72208     103.73568        10            D15030         0         0         0         1           sdc        25           tot       1.00000  
      11  cha011                   0       0.01090      55.54829      23.72707     102.62678        11            D15036         0         0         0         1           sdc       590           tot       1.00000  
      12  cha012                   0       0.17950      55.56686      23.70931     107.24693        12            D15030         0         0         0         1           sdc       135           tot       1.00000  
      13  cha013                   0       0.51190      55.59854      23.70016     110.52554        13            D15030         0         0         0         1           sdc       198           tot       1.00000  
      14  cha014                   0       0.53040      55.59202      23.73671     101.50650        14            D15030         0         0         0         1           sdc       435           tot       1.00000  
      15  cha015                   0      39.78870      55.54822      23.77001      88.20620        15            D15036         0         0         0         1           sdc       230           tot       1.00000  
      16  cha016                   0       0.01832      55.53906      23.76672      85.59547        16            D15036         0         0         0         1           sdc       743           tot       1.00000  
      17  cha017                   0       0.26970      55.54335      23.67487     108.19498        17            D15030         0         0         0         1           sdc       128           tot       1.00000  
      18  cha018                   0       0.33580      55.54861      23.72385     102.62640        18            D15036         0         0         0         1           sdc       591           tot       1.00000  
      19  cha019                   0      81.08460      55.49939      23.78679      79.64520        19            D15040         0         0         0         1           res        37           tot       1.00000  
      20  cha020                   0      60.71810      55.53970      23.76463      86.50790        20            D15036         0         0         0         1           sdc       257           tot       1.00000  
      21  cha021                   0       1.96840      55.50569      23.73122     101.39693        21            D15036         0         0         0         1           sdc       206           tot       1.00000  
      22  cha022                   0       0.01660      55.54373      23.80786      90.75460        22             D9804         0         0         0         1           sdc       113           tot       1.00000  
      23  cha023                   0       0.88180      55.50110      23.76015      94.17946        23            D15040         0         0         0         1           sdc       428           tot       1.00000  
      24  cha024                   0      80.54316      55.50097      23.78537      79.64548        24            D15040         0         0         0         1           res        38           tot       1.00000  
      25  cha025                   0       0.00001      55.56719      23.72620     102.28017        25            D15030         0         0         0         1           sdc        52           tot       1.00000  
      26  cha026                   0       0.39410      55.57175      23.73078     101.73087        26            D15030         0         0         0         1           sdc         2           tot       1.00000  
      27  cha027                   0       0.21200      55.55832      23.72252     104.31160        27            D15030         0         0         0         1           sdc        49           tot       1.00000  
      28  cha028                   0       0.53160      55.57657      23.67492     112.37569        28            D15030         0         0         0         1           sdc       638           tot       1.00000  
      29  cha029                   0       0.86980      55.56747      23.71600     105.81834        29            D15030         0         0         0         1           sdc        10           tot       1.00000  
      30  cha030                   0       0.73530      55.52309      23.75417      93.71352        30            D15036         0         0         0         1           sdc       145           tot       1.00000  
      31  cha031                   0       0.04240      55.59823      23.70149     110.41183        31            D15030         0         0         0         1           sdc       198           tot       1.00000  
      32  cha032                   0       0.90640      55.57802      23.72706     103.03305        32            D15030         0         0         0         1           sdc       368           tot       1.00000  
      33  cha033                   0       0.63166      55.52103      23.73659     102.53421        33            D15036         0         0         0         1           sdc       195           tot       1.00000  
      34  cha034                   0       0.55060      55.52296      23.73659     100.62541        34            D15036         0         0         0         1           sdc       129           tot       1.00000  
      35  cha035                   0       0.08810      55.54622      23.81713      88.47152        35             D9804         0         0         0         1           sdc       422           tot       1.00000  
      36  cha036                   0       0.00760      55.53876      23.81065      88.35067        36             D9804         0         0         0         1           sdc       284           tot       1.00000  
      37  cha037                   0       0.01410      55.58048      23.76678      91.88965        37            D15030         0         0         0         1           sdc       253           tot       1.00000  
      38  cha038                   0       0.91730      55.56579      23.71784     105.88012        38            D15030         0         0         0         1           sdc        10           tot       1.00000  
      39  cha039                   0       0.09488      55.57424      23.73589     100.51280        39            D15030         0         0         0         1           sdc         2           tot       1.00000  
      40  cha040                   0       0.00001      55.57782      23.72250     103.34660        40            D15030         0         0         0         1           sdc       371           tot       1.00000  
      41  cha041                   0       0.02712      55.54177      23.72691     103.13665        41            D15036         0         0         0         1           sdc        55           tot       1.00000  
      42  cha042                   0      38.40758      55.55579      23.76380      88.47769        42            D15036         0         0         0         1           sdc       218           tot       1.00000  
      43  cha043                   0       0.00001      55.54891      23.76801      88.47435        43            D15036         0         0         0         1           sdc       783           tot       1.00000  
      44  cha044                   0       0.24890      55.57506      23.66723     117.01846        44            D15030         0         0         0         1           sdc       478           tot       1.00000  
      45  cha045                   0       0.12114      55.50037      23.75399      95.45046        45            D15040         0         0         0         1           sdc        46           tot       1.00000  
      46  cha046                   0       0.19375      55.50033      23.75666      94.45139        46            D15040         0         0         0         1           sdc        23           tot       1.00000  
      47  cha047                   0       0.01660      55.54810      23.76579      91.41735        47            D15036         0         0         0         1           sdc       137           tot       1.00000  
      48  cha048                   0       0.21134      55.50953      23.71656     105.00266        48            D15036         0         0         0         1           sdc       701           tot       1.00000  
      49  cha049                   0       9.48800      55.56071      23.71978     101.87184        49            D15030         0         0         0         1           sdc       178           tot       1.00000  
      50  cha050                   0       0.00630      55.52627      23.79174      91.73116        50            D15036         0         0         0         1           sdc       754           tot       1.00000  
      51  cha051                   0       0.14180      55.57039      23.71373     106.27643        51            D15030         0         0         0         1           sdc        29           tot       1.00000  
      52  cha052                   0      10.96340      55.56625      23.72705     101.62045        52            D15030         0         0         0         1           sdc       779           tot       1.00000  
      53  cha053                   0       0.53570      55.59853      23.69911     110.19209        53            D15030         0         0         0         1           sdc        13           tot       1.00000  
      54  cha054                   0       0.02140      55.53973      23.80263      91.00062        54             D9804         0         0         0         1           sdc       756           tot       1.00000  
      55  cha055                   0       0.02980      55.54237      23.72898     103.55210        55            D15036         0         0         0         1           sdc       386           tot       1.00000  
      56  cha056                   0       0.66130      55.54461      23.73737     101.94527        56            D15036         0         0         0         1           sdc       425           tot       1.00000  
      57  cha057                   0      14.13870      55.31667      23.97005      41.29845        57            D16139         0         0         0         1           sdc       265           tot       1.00000  
      58  cha058                   0       0.00784      55.46607      23.76519      89.45033        58            D15040         0         0         0         1           sdc       769           tot       1.00000  
      59  cha059                   0       1.92500      55.45816      23.73127      97.81408        59            D15040         0         0         0         1           sdc       599           tot       1.00000  
      60  cha060                   0      12.55660      55.39473      23.85032      62.93297        60     s55400n23867e         0         0         0         1           sdc       406           tot       1.00000  
      61  cha061                   0       0.80810      55.34277      23.94443      52.17713        61            D20739         0         0         0         1           sdc       223           tot       1.00000  
      62  cha062                   0       0.00564      55.33068      23.94734      42.09324        62            D16139         0         0         0         1           sdc       764           tot       1.00000  
      63  cha063                   0       0.01045      55.56526      23.71590     106.84210        63            D15030         0         0         0         1           sdc       141           tot       1.00000  
      64  cha064                   0       0.09020      55.51529      23.76176      91.92064        64            D15036         0         0         0         1           res        43           tot       1.00000  
      65  cha065                   0      63.44920      55.52475      23.76336      84.03632        65            D15036         0         0         0         1           sdc       462           tot       1.00000  
      66  cha066                   0       0.02600      55.58209      23.70487     108.99427        66            D15030         0         0         0         1           sdc       519           tot       1.00000  
      67  cha067                   0       0.00400      55.54430      23.76799      86.83338        67            D15036         0         0         0         1           sdc       723           tot       1.00000  
      68  cha068                   0       0.21520      55.50925      23.73595     103.50365        68            D15036         0         0         0         1           sdc       753           tot       1.00000  
      69  cha069                   0       0.63560      55.57481      23.72233     104.48460        69            D15030         0         0         0         1           sdc       371           tot       1.00000  
      70  cha070                   0       0.62790      55.52749      23.68735     105.83581        70            D15036         0         0         0         1           sdc       617           tot       1.00000  
      71  cha071                   0       0.54170      55.54029      23.80812      89.13740        71             D9804         0         0         0         1           sdc        36           tot       1.00000  
      72  cha072                   0       0.04580      55.47822      23.71960     102.19214        72            D15040         0         0         0         1           sdc       578           tot       1.00000  
      73  cha073                   0       0.94760      55.51073      23.72741     102.66669        73            D15036         0         0         0         1           sdc        86           tot       1.00000  
      74  cha074                   0       0.00260      55.32780      23.96770      46.32450        74            D16139         0         0         0         1           sdc       117           tot       1.00000  
      75  cha075                   0       0.57278      55.44460      23.81166      75.41010        75             D2802         0         0         0         1           sdc       539           tot       1.00000  
      76  cha076                   0       0.63730      55.44566      23.80136      83.77825        76            D15040         0         0         0         1           sdc       576           tot       1.00000  
      77  cha077                   0       0.02180      55.46517      23.77454      86.90415        77            D15040         0         0         0         1           sdc       510           tot       1.00000  
      78  cha078                   0       0.09660      55.34856      23.92810      54.32195        78            D20739         0         0         0         1           sdc       461           tot       1.00000  
      79  cha079                   0       0.01140      55.33622      23.94892      50.83799        79            D16139         0         0         0         1           sdc       600           tot       1.00000  
      80  cha080                   0       0.46370      55.32536      23.97104      47.25691        80            D16139         0         0         0         1           sdc       117           tot       1.00000  
      81  cha081                   0       0.01660      55.54280      23.80396             0        81             D9804         0         0         0         1           sdc        54           tot       1.00000  
      82  cha082                   0       0.49170      55.46230      23.77166      86.77703        82            D15040         0         0         0         1           sdc       132           tot       1.00000  
      83  cha083                   0      17.39750      55.29601      23.98564      27.37498        83            D16141         0         0         0         0  
      84  cha084                   0       0.28680      55.45252      23.78974      83.97225        84            D15040         0         0         0         1           sdc       126           tot       1.00000  
      85  cha085                   0       0.05350      55.49326      23.78598      89.04840        85            D15040         0         0         0         1           sdc       780           tot       1.00000  
      86  cha086                   0       0.96272      55.51031      23.72633     102.18057        86            D15036         0         0         0         1           sdc       557           tot       1.00000  
      87  cha087                   0       0.98384      55.39662      23.85760      67.09202        87     s55400n23867e         0         0         0         1           res        28           tot       1.00000  
      88  cha088                   0       0.02290      55.31124      23.96888      45.54120        88            D16141         0         0         0         1           res        62           tot       1.00000  
      89  cha089                   0     158.13540      55.35569      23.89534      52.11628        89            D15046         0         0         0         1           sdc       283           tot       1.00000  
      90  cha090                   0       0.12740      55.32372      23.94695      49.29857        90            D16141         0         0         0         1           sdc       765           tot       1.00000  
      91  cha091                   0       9.83470      55.44296      23.83665      78.56652        91             D2802         0         0         0         1           sdc       280           tot       1.00000  
      92  cha092                   0       0.16625      55.33868      23.95308      49.84130        92            D16139         0         0         0         1           sdc       614           tot       1.00000  
      93  cha093                   0       0.06690      55.57055      23.72071     104.53803        93            D15030         0         0         0         1           sdc        25           tot       1.00000  
      94  cha094                   0       4.68075      55.48623      23.75695      93.02137        94            D15040         0         0         0         1           sdc       340           tot       1.00000  
      95  cha095                   0      15.33900      55.48967      23.77376      87.75010        95            D15040         0         0         0         1           sdc       417           tot       1.00000  
      96  cha096                   0       0.27490      55.48469      23.80961      85.46036        96            D15040         0         0         0         1           sdc       667           tot       1.00000  
      97  cha097                   0       0.15030      55.50293      23.72134     104.63104        97            D15036         0         0         0         1           sdc       172           tot       1.00000  
      98  cha098                   0       0.01930      55.57482      23.68256     111.99241        98            D15030         0         0         0         1           sdc       620           tot       1.00000  
      99  cha099                   0      10.59748      55.33278      23.96062      39.79750        99            D16139         0         0         0         1           sdc       118           tot       1.00000  
     100  cha100                   0       0.13280      55.53344      23.78836      91.12340       100            D15036         0         0         0         1           sdc       331           tot       1.00000  
     101  cha101                   0       0.27690      55.57061      23.69858     110.25354       101            D15030         0         0         0         1           sdc       527           tot       1.00000  
     102  cha102                   0      18.36080      55.48827      23.77824      85.36780       102            D15040         0         0         0         1           sdc       119           tot       1.00000  
     103  cha103                   0       0.08800      55.48401      23.76956      91.98239       103            D15040         0         0         0         1           sdc       759           tot       1.00000  
     104  cha104                   0       0.22860      55.49467      23.76687      91.93980       104            D15040         0         0         0         1           sdc       448           tot       1.00000  
     105  cha105                   0       5.23600      55.48878      23.76837      88.68125       105            D15040         0         0         0         1           sdc        95           tot       1.00000  
     106  cha106                   0       0.74510      55.34328      23.94642      51.98480       106            D20739         0         0         0         1           sdc       409           tot       1.00000  
     107  cha107                   0       0.00454      55.54267      23.81508      88.41130       107             D9804         0         0         0         1           sdc       422           tot       1.00000  
     108  cha108                   0       0.24390      55.53385      23.78536      92.39818       108            D15036         0         0         0         1           sdc       197           tot       1.00000  
     109  cha109                   0       2.26630      55.60364      23.74491      99.64283       109            D15030         0         0         0         1           res        61           tot       1.00000  
     110  cha110                   0       5.70400      55.33868      23.94118      45.97915       110            D20739         0         0         0         1           sdc       569           tot       1.00000  
     111  cha111                   0       0.00640      55.47026      23.72637     100.97163       111            D15040         0         0         0         1           sdc       579           tot       1.00000  
     112  cha112                   0       0.00490      55.47356      23.74235      99.73571       112            D15040         0         0         0         1           sdc       773           tot       1.00000  
     113  cha113                   0       0.21560      55.54150      23.81056      89.37805       113             D9804         0         0         0         1           sdc       284           tot       1.00000  
     114  cha114                   0       0.49170      55.34524      23.94468      52.15410       114            D20739         0         0         0         1           sdc       692           tot       1.00000  
     115  cha115                   0       6.79200      55.33726      23.94372      45.68050       115            D16139         0         0         0         1           res       212           tot       1.00000  
     116  cha116                   0       0.40080      55.31562      23.97461      45.67901       116            D16139         0         0         0         1           sdc       766           tot       1.00000  
     117  cha117                   0       0.24490      55.33007      23.96620      46.18410       117            D16139         0         0         0         1           sdc       608           tot       1.00000  
     118  cha118                   0      10.62962      55.33147      23.96145      39.20376       118            D16139         0         0         0         1           sdc       120           tot       1.00000  
     119  cha119                   0      18.37682      55.48705      23.77999      84.31680       119            D15040         0         0         0         1           sdc       746           tot       1.00000  
     120  cha120                   0      10.79360      55.33025      23.96226      38.77495       120            D16139         0         0         0         1           sdc       214           tot       1.00000  
     121  cha121                   0       0.00880      55.33835      23.95148      50.48194       121            D16139         0         0         0         1           sdc        92           tot       1.00000  
     122  cha122                   0       1.56550      55.35543      23.92757      55.07380       122            D20739         0         0         0         1           sdc        78           tot       1.00000  
     123  cha123                   0       2.64120      55.52120      23.70043     101.93330       123            D15036         0         0         0         1           sdc       133           tot       1.00000  
     124  cha124                   0       1.19660      55.46937      23.73497      99.41501       124            D15040         0         0         0         1           sdc       684           tot       1.00000  
     125  cha125                   0      10.56120      55.33323      23.95947      39.87202       125            D16139         0         0         0         1           sdc       648           tot       1.00000  
     126  cha126                   0       0.37650      55.44937      23.78673      84.27227       126            D15040         0         0         0         1           sdc       185           tot       1.00000  
     127  cha127                   0       9.74370      55.33046      23.95777      40.23026       127            D16139         0         0         0         1           sdc       264           tot       1.00000  
     128  cha128                   0       0.00001      55.54263      23.67531     108.39325       128            D15030         0         0         0         1           sdc       365           tot       1.00000  
     129  cha129                   0       0.00270      55.52323      23.73778     100.67384       129            D15036         0         0         0         1           sdc       350           tot       1.00000  
     130  cha130                   0       0.00001      55.58334      23.76087      92.03665       130            D15030         0         0         0         1           sdc       492           tot       1.00000  
     131  cha131                   0       0.00001      55.50872      23.72059     104.72638       131            D15036         0         0         0         1           sdc       186           tot       1.00000  
     132  cha132                   0       0.00001      55.46446      23.77259      87.68570       132            D15040         0         0         0         1           sdc        77           tot       1.00000  
     133  cha133                   0       0.00001      55.52308      23.70537     101.90302       133            D15036         0         0         0         1           sdc       286           tot       1.00000  
     134  cha134                   0       0.94090      55.51100      23.72704     102.38875       134            D15036         0         0         0         1           sdc        73           tot       1.00000  
     135  cha135                   0       0.00070      55.56537      23.71406     106.48519       135            D15030         0         0         0         1           sdc        63           tot       1.00000  
     136  cha136                   0       0.00001      55.52893      23.72556      99.06570       136            D15036         0         0         0         1           sdc       243           tot       1.00000  
     137  cha137                   0       0.00060      55.54882      23.76771      88.74525       137            D15036         0         0         0         1           sdc        43           tot       1.00000  
     138  cha138                   0       0.00001      55.46278      23.78396      83.26859       138            D15040         0         0         0         1           sdc       241           tot       1.00000  