exco_om.exc: written by SWAT+ editor v2.1.0 on 2024-09-05 13:48 for SWAT+ rev.60.5.4
name                       flo           sed          orgn          sedp           no3          solp          chla           nh3           no2          cbod           dox          sand          silt          clay           sag           lag        gravel           tmp  
Akad_com_ser_1        10.00000       0.00000       9.00000       0.00000       8.00000       2.00000       0.00000       0.00000       0.00000       0.00000       0.00000       0.00000       0.00000       0.00000       0.00000       0.00000       0.00000       0.00000  
Akad_com_ser_2         9.00000       0.00000       4.00000       0.00000       1.00000       5.00000       0.00000       0.00000       0.00000       0.00000       0.00000       0.00000       0.00000       0.00000       0.00000       0.00000       0.00000       0.00000  
Akad_com_ser_3         9.00000       0.00000       9.00000       0.00000       0.00000       6.00000       0.00000       0.00000       0.00000       0.00000       0.00000       0.00000       0.00000       0.00000       0.00000       0.00000       0.00000       0.00000  
Akad_com_ser_4         2.00000       0.00000       1.00000       0.00000       6.00000       0.00000       0.00000       0.00000       0.00000       0.00000       0.00000       0.00000       0.00000       0.00000       0.00000       0.00000       0.00000       0.00000  
Mantvil_ZUB            7.00000       0.00000       8.00000       0.00000       9.00000       3.00000       0.00000       0.00000       0.00000       0.00000       0.00000       0.00000       0.00000       0.00000       0.00000       0.00000       0.00000       0.00000  
Kedain_road_ser        9.00000       0.00000       2.00000       0.00000       7.00000       3.00000       0.00000       0.00000       0.00000       0.00000       0.00000       0.00000       0.00000       0.00000       0.00000       0.00000       0.00000       0.00000  
Ked_conc_fabric        7.00000       0.00000       8.00000       0.00000       7.00000       4.00000       0.00000       0.00000       0.00000       0.00000       0.00000       0.00000       0.00000       0.00000       0.00000       0.00000       0.00000       0.00000  
multiple_src_1         1.00000       0.00000       6.00000       0.00000       6.00000       8.00000       0.00000       0.00000       0.00000       0.00000       0.00000       0.00000       0.00000       0.00000       0.00000       0.00000       0.00000       0.00000  
