hru-data.hru: written by SWAT+ editor v2.1.0 on 2024-09-05 13:47 for SWAT+ rev.60.5.4 and edited with SWATfarmR 2.0.5 on 2024-09-11 08:08:27.688067
      id  name                          topo             hydro              soil            lu_mgt   soil_plant_init         surf_stor              snow             field
       1  hru0001                topohru0001           hyd0001           RDk1-g0      fld1_lum_1_1              null              null           snow001              null
       2  hru0002                topohru0002           hyd0002           RDk1-g0      fld2_lum_2_1              null              null           snow001              null
       3  hru0003                topohru0003           hyd0003           RDk1-g0      fld3_lum_3_1              null              null           snow001              null
       4  hru0004                topohru0004           hyd0004           RDk1-g0      fld4_lum_4_1              null              null           snow001              null
       5  hru0005                topohru0005           hyd0005           RDk1-g0      fld5_lum_5_1              null              null           snow001              null
       6  hru0006                topohru0006           hyd0006             IDp-t      fld6_lum_6_1              null              null           snow001              null
       7  hru0007                topohru0007           hyd0007           RDg8-k2      fld7_lum_7_1              null              null           snow001              null
       8  hru0008                topohru0008           hyd0008           RDk1-g0      fld8_lum_8_1              null              null           snow001              null
       9  hru0009                topohru0009           hyd0009            IDg8-k  fld9_drn_lum_9_1              null              null           snow001              null
      10  hru0010                topohru0010           hyd0010           RDk1-g0    fld10_lum_10_1              null              null           snow001              null
      11  hru0011                topohru0011           hyd0011           RDk1-g0    fld11_lum_11_1              null              null           snow001              null
      12  hru0012                topohru0012           hyd0012           RDk1-g0    fld12_lum_12_1              null              null           snow001              null
      13  hru0013                topohru0013           hyd0013           RDk1-g0    fld13_lum_13_1              null              null           snow001              null
      14  hru0014                topohru0014           hyd0014          SDp-b-g0    fld14_lum_14_1              null              null           snow001              null
      15  hru0015                topohru0015           hyd0015           RDg8-k2    fld15_lum_15_1              null              null           snow001              null
      16  hru0016                topohru0016           hyd0016            IDg8-k fld16_drn_lum_16_1              null              null           snow001              null
      17  hru0017                topohru0017           hyd0017           RDk1-g0    fld17_lum_17_1              null              null           snow001              null
      18  hru0018                topohru0018           hyd0018           RDg8-k2    fld18_lum_18_1              null              null           snow001              null
      19  hru0019                topohru0019           hyd0019           RDk1-g0    fld19_lum_19_1              null              null           snow001              null
      20  hru0020                topohru0020           hyd0020             SDp-b    fld20_lum_20_1              null              null           snow001              null
      21  hru0021                topohru0021           hyd0021            IDg8-k    fld21_lum_21_1              null              null           snow001              null
      22  hru0022                topohru0022           hyd0022            IDg8-k    fld22_lum_22_1              null              null           snow001              null
      23  hru0023                topohru0023           hyd0023             GLv-k    fld23_lum_23_1              null              null           snow001              null
      24  hru0024                topohru0024           hyd0024             GLv-k    fld24_lum_24_1              null              null           snow001              null
      25  hru0025                topohru0025           hyd0025             SDp-b fld25_drn_lum_25_1              null              null           snow001              null
      26  hru0026                topohru0026           hyd0026             IDp-t    fld26_lum_26_1              null              null           snow001              null
      27  hru0027                topohru0027           hyd0027           RDk1-g0    fld27_lum_27_1              null              null           snow001              null
      28  hru0028                topohru0028           hyd0028            IDg8-k fld28_drn_lum_28_1              null              null           snow001              null
      29  hru0029                topohru0029           hyd0029            IDg8-k    fld29_lum_29_1              null              null           snow001              null
      30  hru0030                topohru0030           hyd0030          SDp-b-g0    fld30_lum_30_1              null              null           snow001              null
      31  hru0031                topohru0031           hyd0031            IDg8-k fld31_drn_lum_31_1              null              null           snow001              null
      32  hru0032                topohru0032           hyd0032            IDg8-k    fld32_lum_32_1              null              null           snow001              null
      33  hru0033                topohru0033           hyd0033            IDg8-k fld33_drn_lum_33_1              null              null           snow001              null
      34  hru0034                topohru0034           hyd0034            IDg8-k    fld34_lum_34_1              null              null           snow001              null
      35  hru0035                topohru0035           hyd0035            IDg8-k    fld35_lum_35_1              null              null           snow001              null
      36  hru0036                topohru0036           hyd0036            IDg8-k fld36_drn_lum_36_1              null              null           snow001              null
      37  hru0037                topohru0037           hyd0037             GLv-k fld37_drn_lum_37_1              null              null           snow001              null
      38  hru0038                topohru0038           hyd0038            IDg8-k    fld38_lum_38_1              null              null           snow001              null
      39  hru0039                topohru0039           hyd0039            IDg8-k fld39_drn_lum_39_1              null              null           snow001              null
      40  hru0040                topohru0040           hyd0040            IDg8-k fld40_drn_lum_40_1              null              null           snow001              null
      41  hru0041                topohru0041           hyd0041           RDg8-k2 fld41_drn_lum_41_1              null              null           snow001              null
      42  hru0042                topohru0042           hyd0042           RDg8-k2    fld42_lum_42_1              null              null           snow001              null
      43  hru0043                topohru0043           hyd0043           RDg8-k2    fld43_lum_43_1              null              null           snow001              null
      44  hru0044                topohru0044           hyd0044           RDg8-k2    fld44_lum_44_1              null              null           snow001              null
      45  hru0045                topohru0045           hyd0045            IDg8-k    fld45_lum_45_1              null              null           snow001              null
      46  hru0046                topohru0046           hyd0046           RDg8-k2 fld46_drn_lum_46_1              null              null           snow001              null
      47  hru0047                topohru0047           hyd0047           RDg8-k2 fld47_drn_lum_47_1              null              null           snow001              null
      48  hru0048                topohru0048           hyd0048           RDg8-k2 fld48_drn_lum_48_1              null              null           snow001              null
      49  hru0049                topohru0049           hyd0049            IDg8-k    fld49_lum_49_1              null              null           snow001              null
      50  hru0050                topohru0050           hyd0050           RDg8-k2 fld50_drn_lum_50_1              null              null           snow001              null
      51  hru0051                topohru0051           hyd0051           RDg8-k2    fld51_lum_51_1              null              null           snow001              null
      52  hru0052                topohru0052           hyd0052           RDg8-k2    fld52_lum_52_1              null              null           snow001              null
      53  hru0053                topohru0053           hyd0053           RDg8-k2 fld53_drn_lum_53_1              null              null           snow001              null
      54  hru0054                topohru0054           hyd0054           RDg8-k2 fld54_drn_lum_54_1              null              null           snow001              null
      55  hru0055                topohru0055           hyd0055           RDg8-k2 fld55_drn_lum_55_1              null              null           snow001              null
      56  hru0056                topohru0056           hyd0056           RDg8-k2 fld56_drn_lum_56_1              null              null           snow001              null
      57  hru0057                topohru0057           hyd0057           RDg8-k2 fld57_drn_lum_57_1              null              null           snow001              null
      58  hru0058                topohru0058           hyd0058            IDg8-k fld58_drn_lum_58_1              null              null           snow001              null
      59  hru0059                topohru0059           hyd0059            IDg8-k fld59_drn_lum_59_1              null              null           snow001              null
      60  hru0060                topohru0060           hyd0060            IDg8-k fld60_drn_lum_60_1              null              null           snow001              null
      61  hru0061                topohru0061           hyd0061            IDg8-k fld61_drn_lum_61_1              null              null           snow001              null
      62  hru0062                topohru0062           hyd0062           RDg8-k2    fld62_lum_62_1              null              null           snow001              null
      63  hru0063                topohru0063           hyd0063            IDg8-k    fld63_lum_63_1              null              null           snow001              null
      64  hru0064                topohru0064           hyd0064           RDg8-k2 fld64_drn_lum_64_1              null              null           snow001              null
      65  hru0065                topohru0065           hyd0065            IDg8-k fld65_drn_lum_65_1              null              null           snow001              null
      66  hru0066                topohru0066           hyd0066            IDg8-k fld66_drn_lum_66_1              null              null           snow001              null
      67  hru0067                topohru0067           hyd0067            IDg8-k    fld67_lum_67_1              null              null           snow001              null
      68  hru0068                topohru0068           hyd0068            IDg8-k fld68_drn_lum_68_1              null              null           snow001              null
      69  hru0069                topohru0069           hyd0069            IDg8-k    fld69_lum_69_1              null              null           snow001              null
      70  hru0070                topohru0070           hyd0070            IDg8-k    fld70_lum_70_1              null              null           snow001              null
      71  hru0071                topohru0071           hyd0071            IDg8-k fld71_drn_lum_71_1              null              null           snow001              null
      72  hru0072                topohru0072           hyd0072            IDg8-k    fld72_lum_72_1              null              null           snow001              null
      73  hru0073                topohru0073           hyd0073            IDg8-k    fld73_lum_73_1              null              null           snow001              null
      74  hru0074                topohru0074           hyd0074           RDg8-k2    fld74_lum_74_1              null              null           snow001              null
      75  hru0075                topohru0075           hyd0075           RDg8-k2 fld75_drn_lum_75_1              null              null           snow001              null
      76  hru0076                topohru0076           hyd0076           RDg8-k2 fld76_drn_lum_76_1              null              null           snow001              null
      77  hru0077                topohru0077           hyd0077           RDg8-k2 fld77_drn_lum_77_1              null              null           snow001              null
      78  hru0078                topohru0078           hyd0078            IDg8-k fld78_drn_lum_78_1              null              null           snow001              null
      79  hru0079                topohru0079           hyd0079            IDg8-k    fld79_lum_79_1              null              null           snow001              null
      80  hru0080                topohru0080           hyd0080           RDg8-k2 fld80_drn_lum_80_1              null              null           snow001              null
      81  hru0081                topohru0081           hyd0081            IDg8-k    fld81_lum_81_1              null              null           snow001              null
      82  hru0082                topohru0082           hyd0082            IDg8-k    fld82_lum_82_1              null              null           snow001              null
      83  hru0083                topohru0083           hyd0083           RDg8-k2 fld83_drn_lum_83_1              null              null           snow001              null
      84  hru0084                topohru0084           hyd0084            IDg8-k    fld84_lum_84_1              null              null           snow001              null
      85  hru0085                topohru0085           hyd0085           RDg8-k2 fld85_drn_lum_85_1              null              null           snow001              null
      86  hru0086                topohru0086           hyd0086            IDg8-k fld86_drn_lum_86_1              null              null           snow001              null
      87  hru0087                topohru0087           hyd0087           RDg8-k2 fld87_drn_lum_87_1              null              null           snow001              null
      88  hru0088                topohru0088           hyd0088            IDg8-k fld88_drn_lum_88_1              null              null           snow001              null
      89  hru0089                topohru0089           hyd0089            IDg8-k fld89_drn_lum_89_1              null              null           snow001              null
      90  hru0090                topohru0090           hyd0090            IDg8-k    fld90_lum_90_1              null              null           snow001              null
      91  hru0091                topohru0091           hyd0091           RDg8-k2 fld91_drn_lum_91_1              null              null           snow001              null
      92  hru0092                topohru0092           hyd0092           RDg8-k2 fld92_drn_lum_92_1              null              null           snow001              null
      93  hru0093                topohru0093           hyd0093            IDg8-k    fld93_lum_93_1              null              null           snow001              null
      94  hru0094                topohru0094           hyd0094           RDg8-k2 fld94_drn_lum_94_1              null              null           snow001              null
      95  hru0095                topohru0095           hyd0095            IDg8-k    fld95_lum_95_1              null              null           snow001              null
      96  hru0096                topohru0096           hyd0096            IDg8-k    fld96_lum_96_1              null              null           snow001              null
      97  hru0097                topohru0097           hyd0097            IDg8-k    fld97_lum_97_1              null              null           snow001              null
      98  hru0098                topohru0098           hyd0098           RDg8-k2 fld98_drn_lum_98_1              null              null           snow001              null
      99  hru0099                topohru0099           hyd0099            IDg8-k fld99_drn_lum_99_1              null              null           snow001              null
     100  hru0100                topohru0100           hyd0100           RDg8-k2 fld100_drn_lum_100_1              null              null           snow001              null
     101  hru0101                topohru0101           hyd0101           RDg8-k2  fld101_lum_101_1              null              null           snow001              null
     102  hru0102                topohru0102           hyd0102           RDg8-k2 fld102_drn_lum_102_1              null              null           snow001              null
     103  hru0103                topohru0103           hyd0103            IDg8-k fld103_drn_lum_103_1              null              null           snow001              null
     104  hru0104                topohru0104           hyd0104           RDg8-k2 fld104_drn_lum_104_1              null              null           snow001              null
     105  hru0105                topohru0105           hyd0105           RDg8-k2  fld105_lum_105_1              null              null           snow001              null
     106  hru0106                topohru0106           hyd0106           RDg8-k2 fld106_drn_lum_106_1              null              null           snow001              null
     107  hru0107                topohru0107           hyd0107           RDg8-k2 fld107_drn_lum_107_1              null              null           snow001              null
     108  hru0108                topohru0108           hyd0108           RDg8-k2 fld108_drn_lum_108_1              null              null           snow001              null
     109  hru0109                topohru0109           hyd0109           RDg8-k2  fld109_lum_109_1              null              null           snow001              null
     110  hru0110                topohru0110           hyd0110            IDg8-k fld110_drn_lum_110_1              null              null           snow001              null
     111  hru0111                topohru0111           hyd0111           RDg8-k2  fld111_lum_111_1              null              null           snow001              null
     112  hru0112                topohru0112           hyd0112            IDg8-k  fld112_lum_112_1              null              null           snow001              null
     113  hru0113                topohru0113           hyd0113           RDg8-k2  fld113_lum_113_1              null              null           snow001              null
     114  hru0114                topohru0114           hyd0114           RDg8-k2 fld114_drn_lum_114_1              null              null           snow001              null
     115  hru0115                topohru0115           hyd0115            IDg8-k  fld115_lum_115_1              null              null           snow001              null
     116  hru0116                topohru0116           hyd0116            IDg8-k fld116_drn_lum_116_1              null              null           snow001              null
     117  hru0117                topohru0117           hyd0117           RDg8-k2 fld117_drn_lum_117_1              null              null           snow001              null
     118  hru0118                topohru0118           hyd0118            IDg8-k fld118_drn_lum_118_1              null              null           snow001              null
     119  hru0119                topohru0119           hyd0119           RDg8-k2 fld119_drn_lum_119_1              null              null           snow001              null
     120  hru0120                topohru0120           hyd0120           RDg8-k2  fld120_lum_120_1              null              null           snow001              null
     121  hru0121                topohru0121           hyd0121           RDg8-k2  fld121_lum_121_1              null              null           snow001              null
     122  hru0122                topohru0122           hyd0122           RDg8-k2 fld122_drn_lum_122_1              null              null           snow001              null
     123  hru0123                topohru0123           hyd0123           RDg8-k2 fld123_drn_lum_123_1              null              null           snow001              null
     124  hru0124                topohru0124           hyd0124            IDg8-k fld124_drn_lum_124_1              null              null           snow001              null
     125  hru0125                topohru0125           hyd0125           RDg8-k2 fld125_drn_lum_125_1              null              null           snow001              null
     126  hru0126                topohru0126           hyd0126            IDg8-k fld126_drn_lum_126_1              null              null           snow001              null
     127  hru0127                topohru0127           hyd0127           RDg8-k2 fld127_drn_lum_127_1              null              null           snow001              null
     128  hru0128                topohru0128           hyd0128           RDg8-k2 fld128_drn_lum_128_1              null              null           snow001              null
     129  hru0129                topohru0129           hyd0129           RDg8-k2 fld129_drn_lum_129_1              null              null           snow001              null
     130  hru0130                topohru0130           hyd0130            IDg8-k fld130_drn_lum_130_1              null              null           snow001              null
     131  hru0131                topohru0131           hyd0131           RDg8-k2 fld131_drn_lum_131_1              null              null           snow001              null
     132  hru0132                topohru0132           hyd0132           RDg8-k2  fld132_lum_132_1              null              null           snow001              null
     133  hru0133                topohru0133           hyd0133           RDg8-k2 fld133_drn_lum_133_1              null              null           snow001              null
     134  hru0134                topohru0134           hyd0134           RDg8-k2 fld134_drn_lum_134_1              null              null           snow001              null
     135  hru0135                topohru0135           hyd0135           RDg8-k2  fld135_lum_135_1              null              null           snow001              null
     136  hru0136                topohru0136           hyd0136           RDg8-k2 fld136_drn_lum_136_1              null              null           snow001              null
     137  hru0137                topohru0137           hyd0137           RDg8-k2 fld137_drn_lum_137_1              null              null           snow001              null
     138  hru0138                topohru0138           hyd0138           RDg8-k2  fld138_lum_138_1              null              null           snow001              null
     139  hru0139                topohru0139           hyd0139           RDg8-k2 fld139_drn_lum_139_1              null              null           snow001              null
     140  hru0140                topohru0140           hyd0140           RDg8-k2 fld140_drn_lum_140_1              null              null           snow001              null
     141  hru0141                topohru0141           hyd0141           RDg8-k2 fld141_drn_lum_141_1              null              null           snow001              null
     142  hru0142                topohru0142           hyd0142           RDg8-k2 fld142_drn_lum_142_1              null              null           snow001              null
     143  hru0143                topohru0143           hyd0143           RDg8-k2 fld143_drn_lum_143_1              null              null           snow001              null
     144  hru0144                topohru0144           hyd0144           RDg8-k2 fld144_drn_lum_144_1              null              null           snow001              null
     145  hru0145                topohru0145           hyd0145           RDg8-k2 fld145_drn_lum_145_1              null              null           snow001              null
     146  hru0146                topohru0146           hyd0146           RDg8-k2 fld146_drn_lum_146_1              null              null           snow001              null
     147  hru0147                topohru0147           hyd0147           RDg8-k2 fld147_drn_lum_147_1              null              null           snow001              null
     148  hru0148                topohru0148           hyd0148           RDg8-k2 fld148_drn_lum_148_1              null              null           snow001              null
     149  hru0149                topohru0149           hyd0149           RDg8-k2 fld149_drn_lum_149_1              null              null           snow001              null
     150  hru0150                topohru0150           hyd0150           RDg8-k2 fld150_drn_lum_150_1              null              null           snow001              null
     151  hru0151                topohru0151           hyd0151           RDg8-k2 fld151_drn_lum_151_1              null              null           snow001              null
     152  hru0152                topohru0152           hyd0152           RDg8-k2  fld152_lum_152_1              null              null           snow001              null
     153  hru0153                topohru0153           hyd0153           RDg8-k2 fld153_drn_lum_153_1              null              null           snow001              null
     154  hru0154                topohru0154           hyd0154           RDg8-k2  fld154_lum_154_1              null              null           snow001              null
     155  hru0155                topohru0155           hyd0155           RDg8-k2  fld155_lum_155_1              null              null           snow001              null
     156  hru0156                topohru0156           hyd0156           RDg8-k2  fld156_lum_156_1              null              null           snow001              null
     157  hru0157                topohru0157           hyd0157           RDg8-k2 fld157_drn_lum_157_1              null              null           snow001              null
     158  hru0158                topohru0158           hyd0158           RDg8-k2  fld158_lum_158_1              null              null           snow001              null
     159  hru0159                topohru0159           hyd0159           RDg8-k2  fld159_lum_159_1              null              null           snow001              null
     160  hru0160                topohru0160           hyd0160           RDg8-k2  fld160_lum_160_1              null              null           snow001              null
     161  hru0161                topohru0161           hyd0161           RDg8-k2  fld161_lum_161_1              null              null           snow001              null
     162  hru0162                topohru0162           hyd0162           RDg8-k2  fld162_lum_162_1              null              null           snow001              null
     163  hru0163                topohru0163           hyd0163           RDg8-k2 fld163_drn_lum_163_1              null              null           snow001              null
     164  hru0164                topohru0164           hyd0164           RDg8-k2 fld164_drn_lum_164_1              null              null           snow001              null
     165  hru0165                topohru0165           hyd0165           RDg8-k2 fld165_drn_lum_165_1              null              null           snow001              null
     166  hru0166                topohru0166           hyd0166           RDg8-k2 fld166_drn_lum_166_1              null              null           snow001              null
     167  hru0167                topohru0167           hyd0167           RDg8-k2 fld167_drn_lum_167_1              null              null           snow001              null
     168  hru0168                topohru0168           hyd0168           RDg8-k2  fld168_lum_168_1              null              null           snow001              null
     169  hru0169                topohru0169           hyd0169           RDg8-k2  fld169_lum_169_1              null              null           snow001              null
     170  hru0170                topohru0170           hyd0170           RDg8-k2 fld170_drn_lum_170_1              null              null           snow001              null
     171  hru0171                topohru0171           hyd0171           RDg8-k2 fld171_drn_lum_171_1              null              null           snow001              null
     172  hru0172                topohru0172           hyd0172           RDg8-k2  fld172_lum_172_1              null              null           snow001              null