hru.con: written by SWAT+ editor v2.1.0 on 2024-09-05 13:47 for SWAT+ rev.60.5.4
      id  name                gis_id          area           lat           lon          elev       hru               wst       cst      ovfl      rule   out_tot  
       1  hru0001                  0       0.43480      55.30621      23.97824      44.99918         1            D16141         0         0         0         0  
       2  hru0002                  0       0.22127      55.31055      23.97546      42.41298         2            D16141         0         0         0         0  
       3  hru0003                  0       1.86754      55.31464      23.97229      42.39174         3            D16139         0         0         0         0  
       4  hru0004                  0       0.39393      55.31600      23.97398      45.81902         4            D16139         0         0         0         0  
       5  hru0005                  0       0.50326      55.32278      23.97052      47.11912         5            D16139         0         0         0         0  
       6  hru0006                  0       0.62560      55.32272      23.95256      48.50065         6            D16141         0         0         0         0  
       7  hru0007                  0       0.17481      55.32372      23.95515      49.09863         7            D16139         0         0         0         0  
       8  hru0008                  0       1.17289      55.32434      23.97192      47.63952         8            D16139         0         0         0         0  
       9  hru0009                  0      14.25215      55.32253      23.93302      51.27663         9            D16141         0         0         0         0  
      10  hru0010                  0       3.36068      55.32647      23.96073      43.35248        10            D16139         0         0         0         0  
      11  hru0011                  0       1.23427      55.32707      23.97030      47.49043        11            D16139         0         0         0         0  
      12  hru0012                  0       0.30626      55.32845      23.96984      47.59631        12            D16139         0         0         0         0  
      13  hru0013                  0       0.25506      55.32841      23.96798      46.54472        13            D16139         0         0         0         0  
      14  hru0014                  0       2.94779      55.32743      23.94606      50.62586        14            D16139         0         0         0         0  
      15  hru0015                  0       5.53850      55.32896      23.95932      44.61187        15            D16139         0         0         0         0  
      16  hru0016                  0       0.39379      55.33071      23.93887      50.20210        16            D16139         0         0         0         0  
      17  hru0017                  0       2.13489      55.33001      23.96358      44.73544        17            D16139         0         0         0         0  
      18  hru0018                  0       1.06065      55.33361      23.95984      46.27352        18            D16139         0         0         0         0  
      19  hru0019                  0      10.23522      55.33172      23.96749      46.55108        19            D16139         0         0         0         0  
      20  hru0020                  0       0.49911      55.33524      23.94705      50.77799        20            D16139         0         0         0         0  
      21  hru0021                  0       0.20036      55.33660      23.94837      51.16375        21            D16139         0         0         0         0  
      22  hru0022                  0       0.46554      55.33701      23.94593      51.38019        22            D16139         0         0         0         0  
      23  hru0023                  0       0.51453      55.33808      23.95112      50.80672        23            D16139         0         0         0         0  
      24  hru0024                  0       0.40544      55.33966      23.95019      51.40819        24            D16139         0         0         0         0  
      25  hru0025                  0       0.17163      55.34053      23.92506      53.29254        25            D15046         0         0         0         0  
      26  hru0026                  0       0.73509      55.34064      23.93635      50.49871        26            D20739         0         0         0         0  
      27  hru0027                  0       8.44049      55.33807      23.96920      46.60728        27            D16139         0         0         0         0  
      28  hru0028                  0       0.13439      55.34353      23.91351      55.92231        28            D15046         0         0         0         0  
      29  hru0029                  0       0.63911      55.34363      23.92038      53.51280        29            D15046         0         0         0         0  
      30  hru0030                  0       2.06104      55.34638      23.91149      55.30361        30            D15046         0         0         0         0  
      31  hru0031                  0       0.17093      55.35029      23.90947      55.64249        31            D15046         0         0         0         0  
      32  hru0032                  0       0.94542      55.35022      23.90493      56.68123        32            D15046         0         0         0         0  
      33  hru0033                  0       0.19744      55.35180      23.90769      57.65118        33            D15046         0         0         0         0  
      34  hru0034                  0       0.64442      55.35201      23.90572      55.34393        34            D15046         0         0         0         0  
      35  hru0035                  0       0.86442      55.35328      23.89904      55.82034        35            D15046         0         0         0         0  
      36  hru0036                  0       0.58053      55.35392      23.90477      57.80737        36            D15046         0         0         0         0  
      37  hru0037                  0       0.32184      55.35616      23.91672      56.59559        37            D15046         0         0         0         0  
      38  hru0038                  0       0.14041      55.35668      23.89438      52.70981        38            D15046         0         0         0         0  
      39  hru0039                  0       6.38710      55.35676      23.90690      57.68428        39            D15046         0         0         0         0  
      40  hru0040                  0       0.13162      55.36023      23.90461      59.33133        40            D15046         0         0         0         0  
      41  hru0041                  0       0.39818      55.36160      23.89906      60.65224        41            D15046         0         0         0         0  
      42  hru0042                  0       3.91695      55.36161      23.88868      61.55193        42            D15046         0         0         0         0  
      43  hru0043                  0       0.33153      55.36341      23.89409      61.63971        43            D15046         0         0         0         0  
      44  hru0044                  0       0.10562      55.36544      23.87780      63.76287        44            D15046         0         0         0         0  
      45  hru0045                  0       0.26982      55.36525      23.89301      55.00624        45            D15046         0         0         0         0  
      46  hru0046                  0       0.20007      55.36556      23.87599      63.61909        46            D15046         0         0         0         0  
      47  hru0047                  0       5.00763      55.36404      23.87811      63.28758        47            D15046         0         0         0         0  
      48  hru0048                  0       0.87406      55.36531      23.90060      61.76696        48            D15046         0         0         0         0  
      49  hru0049                  0       1.24458      55.36647      23.89459      56.53523        49            D15046         0         0         0         0  
      50  hru0050                  0       3.62853      55.36639      23.89735      62.85270        50            D15046         0         0         0         0  
      51  hru0051                  0       0.41220      55.36712      23.90069      62.68975        51            D15046         0         0         0         0  
      52  hru0052                  0       1.26070      55.36896      23.89227      58.83724        52            D15046         0         0         0         0  
      53  hru0053                  0       1.04299      55.36912      23.89720      62.46745        53            D15046         0         0         0         0  
      54  hru0054                  0       0.92956      55.36978      23.87835      63.58748        54            D15046         0         0         0         0  
      55  hru0055                  0       0.35830      55.37158      23.87852      63.60492        55            D15046         0         0         0         0  
      56  hru0056                  0       0.10751      55.37202      23.87772      63.71749        56            D15046         0         0         0         0  
      57  hru0057                  0       0.36637      55.37245      23.87671      63.83193        57            D15046         0         0         0         0  
      58  hru0058                  0       0.49618      55.37445      23.88006      62.42991        58            D15046         0         0         0         0  
      59  hru0059                  0       5.93541      55.37365      23.88444      61.38153        59            D15046         0         0         0         0  
      60  hru0060                  0       0.20891      55.37496      23.89002      62.99678        60            D15046         0         0         0         0  
      61  hru0061                  0       0.79888      55.37546      23.88037      63.02336        61            D15046         0         0         0         0  
      62  hru0062                  0       1.91625      55.37553      23.87473      58.25956        62            D15046         0         0         0         0  
      63  hru0063                  0      28.80069      55.37240      23.89670      62.49110        63            D15046         0         0         0         0  
      64  hru0064                  0       1.84600      55.37745      23.87765      63.51575        64            D15046         0         0         0         0  
      65  hru0065                  0       3.06371      55.37754      23.87128      60.92226        65            D15046         0         0         0         0  
      66  hru0066                  0       1.24394      55.37816      23.88336      63.96997        66            D15046         0         0         0         0  
      67  hru0067                  0       0.20392      55.37997      23.87534      64.50489        67            D15046         0         0         0         0  
      68  hru0068                  0       1.78180      55.37861      23.89030      62.97900        68            D15046         0         0         0         0  
      69  hru0069                  0       0.98597      55.38008      23.87372      65.17512        69            D15046         0         0         0         0  
      70  hru0070                  0       0.15684      55.38026      23.86815      61.78225        70            D15046         0         0         0         0  
      71  hru0071                  0       4.61049      55.37946      23.89208      63.11945        71            D15046         0         0         0         0  
      72  hru0072                  0       0.19052      55.38140      23.87377      64.66065        72            D15046         0         0         0         0  
      73  hru0073                  0       1.26853      55.38162      23.87174      65.07863        73            D15046         0         0         0         0  
      74  hru0074                  0       0.14104      55.38216      23.86710      59.51914        74            D15046         0         0         0         0  
      75  hru0075                  0       0.42859      55.38194      23.87786      63.15057        75            D15046         0         0         0         0  
      76  hru0076                  0       0.46875      55.38295      23.86482      63.93062        76            D15046         0         0         0         0  
      77  hru0077                  0       1.41471      55.38169      23.87992      63.77985        77            D15046         0         0         0         0  
      78  hru0078                  0       1.08777      55.38295      23.89107      64.36920        78            D15046         0         0         0         0  
      79  hru0079                  0       0.22729      55.38416      23.86160      66.93158        79            D15046         0         0         0         0  
      80  hru0080                  0       1.19173      55.38393      23.86317      63.23446        80            D15046         0         0         0         0  
      81  hru0081                  0       0.10849      55.38496      23.86222      60.74851        81     s55400n23867e         0         0         0         0  
      82  hru0082                  0       0.48832      55.38570      23.86315      60.15576        82     s55400n23867e         0         0         0         0  
      83  hru0083                  0       0.79070      55.38575      23.87919      69.79945        83            D15046         0         0         0         0  
      84  hru0084                  0       7.01122      55.38419      23.87047      64.81527        84            D15046         0         0         0         0  
      85  hru0085                  0       0.49905      55.38639      23.87445      66.85492        85            D15046         0         0         0         0  
      86  hru0086                  0       1.30973      55.38635      23.85915      67.05192        86     s55400n23867e         0         0         0         0  
      87  hru0087                  0       0.47408      55.38881      23.86603      67.15230        87     s55400n23867e         0         0         0         0  
      88  hru0088                  0       0.20331      55.38884      23.85649      67.04948        88     s55400n23867e         0         0         0         0  
      89  hru0089                  0       0.23655      55.38907      23.85597      66.23828        89     s55400n23867e         0         0         0         0  
      90  hru0090                  0       0.31345      55.38984      23.84221      69.76921        90     s55400n23867e         0         0         0         0  
      91  hru0091                  0       6.39013      55.39105      23.85501      66.66247        91     s55400n23867e         0         0         0         0  
      92  hru0092                  0       1.24036      55.39179      23.86743      69.11135        92     s55400n23867e         0         0         0         0  
      93  hru0093                  0       0.43659      55.39323      23.84531      67.70820        93     s55400n23867e         0         0         0         0  
      94  hru0094                  0       2.02444      55.39318      23.83710      71.57072        94     s55400n23867e         0         0         0         0  
      95  hru0095                  0       0.45885      55.39388      23.85755      67.29394        95     s55400n23867e         0         0         0         0  
      96  hru0096                  0       0.19351      55.39422      23.84763      68.12905        96     s55400n23867e         0         0         0         0  
      97  hru0097                  0       0.95600      55.39511      23.84144      69.26548        97     s55400n23867e         0         0         0         0  
      98  hru0098                  0       5.03265      55.39489      23.83542      72.39314        98     s55400n23867e         0         0         0         0  
      99  hru0099                  0       0.52628      55.39585      23.83939      70.78769        99     s55400n23867e         0         0         0         0  
     100  hru0100                  0       0.25181      55.39709      23.83237      72.84391       100     s55400n23867e         0         0         0         0  
     101  hru0101                  0       1.36736      55.39836      23.86490      69.15787       101     s55400n23867e         0         0         0         0  
     102  hru0102                  0       0.44724      55.39991      23.86106      68.83978       102     s55400n23867e         0         0         0         0  
     103  hru0103                  0       1.17611      55.39973      23.82818      73.63491       103     s55400n23867e         0         0         0         0  
     104  hru0104                  0       5.20962      55.39921      23.84294      72.37872       104     s55400n23867e         0         0         0         0  
     105  hru0105                  0       0.79613      55.40051      23.86767      69.27155       105     s55400n23867e         0         0         0         0  
     106  hru0106                  0       0.59652      55.40052      23.83289      72.40967       106     s55400n23867e         0         0         0         0  
     107  hru0107                  0       0.23395      55.40092      23.86636      69.25683       107     s55400n23867e         0         0         0         0  
     108  hru0108                  0       1.53611      55.40134      23.83569      73.02742       108     s55400n23867e         0         0         0         0  
     109  hru0109                  0       1.16411      55.40147      23.84022      73.35194       109     s55400n23867e         0         0         0         0  
     110  hru0110                  0       0.15081      55.40254      23.82159      75.14820       110     s55400n23867e         0         0         0         0  
     111  hru0111                  0       2.45423      55.40297      23.84298      73.77743       111     s55400n23867e         0         0         0         0  
     112  hru0112                  0       1.54402      55.40371      23.82334      74.88656       112     s55400n23867e         0         0         0         0  
     113  hru0113                  0       1.29616      55.40505      23.87083      69.13079       113     s55400n23867e         0         0         0         0  
     114  hru0114                  0       0.34469      55.40593      23.81966      75.53173       114     s55400n23867e         0         0         0         0  
     115  hru0115                  0       2.39879      55.40511      23.84644      72.02263       115     s55400n23867e         0         0         0         0  
     116  hru0116                  0       0.59105      55.40567      23.83710      74.37093       116     s55400n23867e         0         0         0         0  
     117  hru0117                  0       0.24273      55.40598      23.83222      74.91512       117     s55400n23867e         0         0         0         0  
     118  hru0118                  0       0.25406      55.40615      23.82578      75.86336       118     s55400n23867e         0         0         0         0  
     119  hru0119                  0       0.23868      55.40693      23.82201      75.15124       119     s55400n23867e         0         0         0         0  
     120  hru0120                  0       0.31447      55.40685      23.84654      71.90716       120     s55400n23867e         0         0         0         0  
     121  hru0121                  0       1.46461      55.40672      23.82815      75.96799       121     s55400n23867e         0         0         0         0  
     122  hru0122                  0       0.52058      55.40810      23.84317      71.89332       122     s55400n23867e         0         0         0         0  
     123  hru0123                  0       0.65647      55.40838      23.82308      75.05089       123     s55400n23867e         0         0         0         0  
     124  hru0124                  0       3.76488      55.40827      23.86117      69.19487       124     s55400n23867e         0         0         0         0  
     125  hru0125                  0       0.61245      55.41010      23.81806      77.93685       125             D2802         0         0         0         0  
     126  hru0126                  0       0.33995      55.41056      23.85126      72.08114       126     s55400n23867e         0         0         0         0  
     127  hru0127                  0       0.47804      55.41058      23.81990      77.42857       127             D2802         0         0         0         0  
     128  hru0128                  0       1.09617      55.41189      23.81809      77.81175       128             D2802         0         0         0         0  
     129  hru0129                  0       0.16412      55.41243      23.82419      76.14862       129             D2802         0         0         0         0  
     130  hru0130                  0       0.94447      55.41225      23.82172      77.32103       130             D2802         0         0         0         0  
     131  hru0131                  0       0.30065      55.41276      23.81771      77.38470       131             D2802         0         0         0         0  
     132  hru0132                  0       0.86848      55.41290      23.82573      76.31353       132             D2802         0         0         0         0  
     133  hru0133                  0       0.37234      55.41334      23.82824      76.53342       133             D2802         0         0         0         0  
     134  hru0134                  0       0.99464      55.41337      23.83739      73.77584       134             D2802         0         0         0         0  
     135  hru0135                  0       1.49221      55.41328      23.83119      76.73003       135             D2802         0         0         0         0  
     136  hru0136                  0       0.42349      55.41455      23.82753      76.67781       136             D2802         0         0         0         0  
     137  hru0137                  0       0.31962      55.41541      23.84620      73.71131       137             D2802         0         0         0         0  
     138  hru0138                  0       0.10815      55.41574      23.84177      73.61011       138             D2802         0         0         0         0  
     139  hru0139                  0       1.31646      55.41508      23.83305      76.34905       139             D2802         0         0         0         0  
     140  hru0140                  0       1.19014      55.41588      23.83502      75.74718       140             D2802         0         0         0         0  
     141  hru0141                  0       0.12964      55.41699      23.84299      73.98526       141             D2802         0         0         0         0  
     142  hru0142                  0       1.61753      55.41639      23.83083      77.02051       142             D2802         0         0         0         0  
     143  hru0143                  0       0.12703      55.41796      23.83371      75.59172       143             D2802         0         0         0         0  
     144  hru0144                  0       0.20135      55.41819      23.84782      73.67275       144             D2802         0         0         0         0  
     145  hru0145                  0       0.16866      55.41840      23.84477      73.86617       145             D2802         0         0         0         0  
     146  hru0146                  0       0.18830      55.41892      23.84542      74.29480       146             D2802         0         0         0         0  
     147  hru0147                  0       0.57021      55.41877      23.84166      74.18053       147             D2802         0         0         0         0  
     148  hru0148                  0       3.21054      55.41805      23.84009      74.67179       148             D2802         0         0         0         0  
     149  hru0149                  0       0.59591      55.41900      23.81446      78.13119       149             D2802         0         0         0         0  
     150  hru0150                  0       0.55771      55.41970      23.84366      74.31088       150             D2802         0         0         0         0  
     151  hru0151                  0       0.10467      55.42242      23.83532      76.85710       151             D2802         0         0         0         0  
     152  hru0152                  0       0.35317      55.42243      23.83214      70.26863       152             D2802         0         0         0         0  
     153  hru0153                  0       0.35690      55.42284      23.82489      77.95428       153             D2802         0         0         0         0  
     154  hru0154                  0       1.12540      55.42376      23.78861      81.43050       154            D15040         0         0         0         0  
     155  hru0155                  0       2.31527      55.42289      23.82778      74.96585       155             D2802         0         0         0         0  
     156  hru0156                  0       2.09006      55.42400      23.78555      81.80493       156            D15040         0         0         0         0  
     157  hru0157                  0       0.57385      55.42447      23.83513      77.12001       157             D2802         0         0         0         0  
     158  hru0158                  0       0.38064      55.42490      23.79160      81.49044       158            D15040         0         0         0         0  
     159  hru0159                  0       1.38372      55.42689      23.83160      74.81141       159             D2802         0         0         0         0  
     160  hru0160                  0       0.15786      55.42993      23.82376      75.80158       160             D2802         0         0         0         0  
     161  hru0161                  0       4.62936      55.43074      23.82836      75.63180       161             D2802         0         0         0         0  
     162  hru0162                  0       0.52241      55.43253      23.82614      74.97147       162             D2802         0         0         0         0  
     163  hru0163                  0       0.28657      55.43395      23.81722      81.72216       163             D2802         0         0         0         0  
     164  hru0164                  0       0.15112      55.43510      23.82139      79.65474       164             D2802         0         0         0         0  
     165  hru0165                  0       1.29872      55.43699      23.83471      79.28093       165             D2802         0         0         0         0  
     166  hru0166                  0       0.33377      55.43805      23.82583      80.64310       166             D2802         0         0         0         0  
     167  hru0167                  0       3.51875      55.43705      23.82903      80.20856       167             D2802         0         0         0         0  
     168  hru0168                  0       8.42492      55.43500      23.82452      73.43399       168             D2802         0         0         0         0  
     169  hru0169                  0       0.25857      55.44033      23.82106      78.23782       169             D2802         0         0         0         0  
     170  hru0170                  0       1.24488      55.44050      23.82370      81.59946       170             D2802         0         0         0         0  
     171  hru0171                  0       0.45875      55.44221      23.83675      77.92210       171             D2802         0         0         0         0  
     172  hru0172                  0       0.44270      55.44223      23.81612      76.04631       172             D2802         0         0         0         0  
     173  hru0173                  0       0.90357      55.44223      23.82228      81.35095       173             D2802         0         0         0         0  
     174  hru0174                  0       0.23824      55.44310      23.82106      80.74468       174             D2802         0         0         0         0  
     175  hru0175                  0       2.05422      55.44213      23.81922      80.21601       175             D2802         0         0         0         0  
     176  hru0176                  0       0.66149      55.44450      23.81092      80.05216       176             D2802         0         0         0         0  
     177  hru0177                  0       0.35980      55.44670      23.81092      81.78253       177             D2802         0         0         0         0  
     178  hru0178                  0       1.41958      55.45181      23.71469     105.13081       178            D15040         0         0         0         0  
     179  hru0179                  0       0.17172      55.45461      23.74276      97.53153       179            D15040         0         0         0         0  
     180  hru0180                  0       0.23303      55.45525      23.79317      84.61132       180            D15040         0         0         0         0  
     181  hru0181                  0       0.87459      55.45582      23.74156      97.73379       181            D15040         0         0         0         0  
     182  hru0182                  0       0.33719      55.45683      23.79923      84.85724       182            D15040         0         0         0         0  