hyd-sed-lte.cha: written by SWAT+ editor v2.1.0 on 2024-09-05 13:47 for SWAT+ rev.60.5.4
name                         order            wd            dp           slp           len          mann             k     erod_fact      cov_fact        wd_rto        eq_slp           d50          clay        carbon        dry_bd      side_slp      bed_load           fps           fpn        n_conc        p_conc         p_bio  description
hydcha001                     null       2.40286       0.27956       0.00018       0.37714       0.05000       1.00000       0.01000       0.00500       8.59503       0.00100      12.00000      50.00000       0.04000       1.00000       0.50000       0.50000       1.00000       1.00000       1.00000       1.00000       1.00000  
hydcha002                     null       0.26535       0.07370       0.00280       0.79429       0.05000       1.00000       0.01000       0.00500       3.60063       0.00100      12.00000      50.00000       0.04000       1.00000       0.50000       0.50000       1.00000       1.00000       1.00000       1.00000       1.00000  
hydcha003                     null       1.18653       0.18241       0.00269       0.18254       0.05000       1.00000       0.01000       0.00500       6.50481       0.00100      12.00000      50.00000       0.04000       1.00000       0.50000       0.50000       1.00000       1.00000       1.00000       1.00000       1.00000  
hydcha004                     null       1.48258       0.20873       0.00471       0.16892       0.05000       1.00000       0.01000       0.00500       7.10290       0.00100      12.00000      50.00000       0.04000       1.00000       0.50000       0.50000       1.00000       1.00000       1.00000       1.00000       1.00000  
hydcha005                     null       1.52937       0.21269       0.00461       0.06215       0.05000       1.00000       0.01000       0.00500       7.19060       0.00100      12.00000      50.00000       0.04000       1.00000       0.50000       0.50000       1.00000       1.00000       1.00000       1.00000       1.00000  
hydcha006                     null       1.16166       0.18008       0.00974       0.31854       0.05000       1.00000       0.01000       0.00500       6.45062       0.00100      12.00000      50.00000       0.04000       1.00000       0.50000       0.50000       1.00000       1.00000       1.00000       1.00000       1.00000  
hydcha007                     null       0.53524       0.11268       0.00001       0.16426       0.05000       1.00000       0.01000       0.00500       4.75020       0.00100      12.00000      50.00000       0.04000       1.00000       0.50000       0.50000       1.00000       1.00000       1.00000       1.00000       1.00000  
hydcha008                     null       0.51577       0.11018       0.00143       0.43672       0.05000       1.00000       0.01000       0.00500       4.68119       0.00100      12.00000      50.00000       0.04000       1.00000       0.50000       0.50000       1.00000       1.00000       1.00000       1.00000       1.00000  
hydcha009                     null       2.40592       0.27978       0.00001       0.45891       0.05000       1.00000       0.01000       0.00500       8.59935       0.00100      12.00000      50.00000       0.04000       1.00000       0.50000       0.50000       1.00000       1.00000       1.00000       1.00000       1.00000  
hydcha010                     null       0.52627       0.11153       0.00575       0.53199       0.05000       1.00000       0.01000       0.00500       4.71860       0.00100      12.00000      50.00000       0.04000       1.00000       0.50000       0.50000       1.00000       1.00000       1.00000       1.00000       1.00000  
hydcha011                     null       0.10878       0.04296       0.00001       0.03824       0.05000       1.00000       0.01000       0.00500       2.53189       0.00100      12.00000      50.00000       0.04000       1.00000       0.50000       0.50000       1.00000       1.00000       1.00000       1.00000       1.00000  
hydcha012                     null       0.29160       0.07803       0.00304       0.71163       0.05000       1.00000       0.01000       0.00500       3.73730       0.00100      12.00000      50.00000       0.04000       1.00000       0.50000       0.50000       1.00000       1.00000       1.00000       1.00000       1.00000  
hydcha013                     null       0.42169       0.09754       0.00293       0.09515       0.05000       1.00000       0.01000       0.00500       4.32334       0.00100      12.00000      50.00000       0.04000       1.00000       0.50000       0.50000       1.00000       1.00000       1.00000       1.00000       1.00000  
hydcha014                     null       0.42700       0.09828       0.00652       0.94929       0.05000       1.00000       0.01000       0.00500       4.34473       0.00100      12.00000      50.00000       0.04000       1.00000       0.50000       0.50000       1.00000       1.00000       1.00000       1.00000       1.00000  
hydcha015                     null       1.95200       0.24653       0.00475       0.32033       0.05000       1.00000       0.01000       0.00500       7.91788       0.00100      12.00000      50.00000       0.04000       1.00000       0.50000       0.50000       1.00000       1.00000       1.00000       1.00000       1.00000  
hydcha016                     null       0.13059       0.04799       0.00001       0.05465       0.05000       1.00000       0.01000       0.00500       2.72138       0.00100      12.00000      50.00000       0.04000       1.00000       0.50000       0.50000       1.00000       1.00000       1.00000       1.00000       1.00000  
hydcha017                     null       0.33654       0.08509       0.00001       0.15599       0.05000       1.00000       0.01000       0.00500       3.95490       0.00100      12.00000      50.00000       0.04000       1.00000       0.50000       0.50000       1.00000       1.00000       1.00000       1.00000       1.00000  
hydcha018                     null       0.36353       0.08916       0.00001       0.26762       0.05000       1.00000       0.01000       0.00500       4.07725       0.00100      12.00000      50.00000       0.04000       1.00000       0.50000       0.50000       1.00000       1.00000       1.00000       1.00000       1.00000  
hydcha019                     null       2.50790       0.28690       0.00001       0.23475       0.05000       1.00000       0.01000       0.00500       8.74148       0.00100      12.00000      50.00000       0.04000       1.00000       0.50000       0.50000       1.00000       1.00000       1.00000       1.00000       1.00000  
hydcha020                     null       2.26512       0.26975       0.00001       0.05384       0.05000       1.00000       0.01000       0.00500       8.39699       0.00100      12.00000      50.00000       0.04000       1.00000       0.50000       0.50000       1.00000       1.00000       1.00000       1.00000       1.00000  
hydcha021                     null       0.67747       0.12995       0.00191       0.34346       0.05000       1.00000       0.01000       0.00500       5.21344       0.00100      12.00000      50.00000       0.04000       1.00000       0.50000       0.50000       1.00000       1.00000       1.00000       1.00000       1.00000  
hydcha022                     null       0.12614       0.04699       0.00001       0.05864       0.05000       1.00000       0.01000       0.00500       2.68434       0.00100      12.00000      50.00000       0.04000       1.00000       0.50000       0.50000       1.00000       1.00000       1.00000       1.00000       1.00000  
hydcha023                     null       0.51066       0.10952       0.00140       0.38828       0.05000       1.00000       0.01000       0.00500       4.66282       0.00100      12.00000      50.00000       0.04000       1.00000       0.50000       0.50000       1.00000       1.00000       1.00000       1.00000       1.00000  
hydcha024                     null       2.50199       0.28649       0.00001       0.10574       0.05000       1.00000       0.01000       0.00500       8.73334       0.00100      12.00000      50.00000       0.04000       1.00000       0.50000       0.50000       1.00000       1.00000       1.00000       1.00000       1.00000  
hydcha025                     null       0.00928       0.00969       0.01470       0.01010       0.05000       1.00000       0.01000       0.00500       0.95773       0.00100      12.00000      50.00000       0.04000       1.00000       0.50000       0.50000       1.00000       1.00000       1.00000       1.00000       1.00000  
hydcha026                     null       0.38461       0.09225       0.00419       0.91844       0.05000       1.00000       0.01000       0.00500       4.16900       0.00100      12.00000      50.00000       0.04000       1.00000       0.50000       0.50000       1.00000       1.00000       1.00000       1.00000       1.00000  
hydcha027                     null       0.30920       0.08084       0.00530       0.69249       0.05000       1.00000       0.01000       0.00500       3.82475       0.00100      12.00000      50.00000       0.04000       1.00000       0.50000       0.50000       1.00000       1.00000       1.00000       1.00000       1.00000  
hydcha028                     null       0.42734       0.09833       0.00278       0.34573       0.05000       1.00000       0.01000       0.00500       4.34609       0.00100      12.00000      50.00000       0.04000       1.00000       0.50000       0.50000       1.00000       1.00000       1.00000       1.00000       1.00000  
hydcha029                     null       0.50821       0.10920       0.00161       0.43431       0.05000       1.00000       0.01000       0.00500       4.65395       0.00100      12.00000      50.00000       0.04000       1.00000       0.50000       0.50000       1.00000       1.00000       1.00000       1.00000       1.00000  
hydcha030                     null       0.47903       0.10536       0.00239       0.23175       0.05000       1.00000       0.01000       0.00500       4.54654       0.00100      12.00000      50.00000       0.04000       1.00000       0.50000       0.50000       1.00000       1.00000       1.00000       1.00000       1.00000  
hydcha031                     null       0.17547       0.05738       0.00037       0.13905       0.05000       1.00000       0.01000       0.00500       3.05806       0.00100      12.00000      50.00000       0.04000       1.00000       0.50000       0.50000       1.00000       1.00000       1.00000       1.00000       1.00000  
hydcha032                     null       0.51563       0.11016       0.00177       0.39004       0.05000       1.00000       0.01000       0.00500       4.68069       0.00100      12.00000      50.00000       0.04000       1.00000       0.50000       0.50000       1.00000       1.00000       1.00000       1.00000       1.00000  
hydcha033                     null       0.45408       0.10201       0.00423       0.90312       0.05000       1.00000       0.01000       0.00500       4.45153       0.00100      12.00000      50.00000       0.04000       1.00000       0.50000       0.50000       1.00000       1.00000       1.00000       1.00000       1.00000  
hydcha034                     null       0.43265       0.09906       0.00001       0.14649       0.05000       1.00000       0.01000       0.00500       4.36736       0.00100      12.00000      50.00000       0.04000       1.00000       0.50000       0.50000       1.00000       1.00000       1.00000       1.00000       1.00000  
hydcha035                     null       0.22698       0.06705       0.00332       0.71740       0.05000       1.00000       0.01000       0.00500       3.38528       0.00100      12.00000      50.00000       0.04000       1.00000       0.50000       0.50000       1.00000       1.00000       1.00000       1.00000       1.00000  
hydcha036                     null       0.09581       0.03979       0.00250       0.29199       0.05000       1.00000       0.01000       0.00500       2.40811       0.00100      12.00000      50.00000       0.04000       1.00000       0.50000       0.50000       1.00000       1.00000       1.00000       1.00000       1.00000  
hydcha037                     null       0.11909       0.04538       0.00387       0.08422       0.05000       1.00000       0.01000       0.00500       2.62412       0.00100      12.00000      50.00000       0.04000       1.00000       0.50000       0.50000       1.00000       1.00000       1.00000       1.00000       1.00000  
hydcha038                     null       0.51781       0.11044       0.00851       0.09678       0.05000       1.00000       0.01000       0.00500       4.68847       0.00100      12.00000      50.00000       0.04000       1.00000       0.50000       0.50000       1.00000       1.00000       1.00000       1.00000       1.00000  
hydcha039                     null       0.23299       0.06812       0.00345       1.23795       0.05000       1.00000       0.01000       0.00500       3.42034       0.00100      12.00000      50.00000       0.04000       1.00000       0.50000       0.50000       1.00000       1.00000       1.00000       1.00000       1.00000  
hydcha040                     null       0.00928       0.00969       0.00001       0.01668       0.05000       1.00000       0.01000       0.00500       0.95773       0.00100      12.00000      50.00000       0.04000       1.00000       0.50000       0.50000       1.00000       1.00000       1.00000       1.00000       1.00000  
hydcha041                     null       0.14993       0.05217       0.00177       0.08731       0.05000       1.00000       0.01000       0.00500       2.87389       0.00100      12.00000      50.00000       0.04000       1.00000       0.50000       0.50000       1.00000       1.00000       1.00000       1.00000       1.00000  
hydcha042                     null       1.92787       0.24468       0.00090       0.26620       0.05000       1.00000       0.01000       0.00500       7.87910       0.00100      12.00000      50.00000       0.04000       1.00000       0.50000       0.50000       1.00000       1.00000       1.00000       1.00000       1.00000  
hydcha043                     null       0.00928       0.00969       0.06135       0.02679       0.05000       1.00000       0.01000       0.00500       0.95773       0.00100      12.00000      50.00000       0.04000       1.00000       0.50000       0.50000       1.00000       1.00000       1.00000       1.00000       1.00000  
hydcha044                     null       0.32716       0.08365       0.00001       0.30190       0.05000       1.00000       0.01000       0.00500       3.91102       0.00100      12.00000      50.00000       0.04000       1.00000       0.50000       0.50000       1.00000       1.00000       1.00000       1.00000       1.00000  
hydcha045                     null       0.25391       0.07176       0.00428       0.15635       0.05000       1.00000       0.01000       0.00500       3.53850       0.00100      12.00000      50.00000       0.04000       1.00000       0.50000       0.50000       1.00000       1.00000       1.00000       1.00000       1.00000  
hydcha046                     null       0.29955       0.07931       0.00001       0.18211       0.05000       1.00000       0.01000       0.00500       3.77719       0.00100      12.00000      50.00000       0.04000       1.00000       0.50000       0.50000       1.00000       1.00000       1.00000       1.00000       1.00000  
hydcha047                     null       0.12614       0.04699       0.00638       0.27467       0.05000       1.00000       0.01000       0.00500       2.68434       0.00100      12.00000      50.00000       0.04000       1.00000       0.50000       0.50000       1.00000       1.00000       1.00000       1.00000       1.00000  
hydcha048                     null       0.30886       0.08079       0.00001       0.25107       0.05000       1.00000       0.01000       0.00500       3.82309       0.00100      12.00000      50.00000       0.04000       1.00000       0.50000       0.50000       1.00000       1.00000       1.00000       1.00000       1.00000  
hydcha049                     null       1.17850       0.18166       0.00001       0.06286       0.05000       1.00000       0.01000       0.00500       6.48739       0.00100      12.00000      50.00000       0.04000       1.00000       0.50000       0.50000       1.00000       1.00000       1.00000       1.00000       1.00000  
hydcha050                     null       0.08969       0.03823       0.00053       0.08656       0.05000       1.00000       0.01000       0.00500       2.34612       0.00100      12.00000      50.00000       0.04000       1.00000       0.50000       0.50000       1.00000       1.00000       1.00000       1.00000       1.00000  
hydcha051                     null       0.26838       0.07420       0.00078       0.28253       0.05000       1.00000       0.01000       0.00500       3.61681       0.00100      12.00000      50.00000       0.04000       1.00000       0.50000       0.50000       1.00000       1.00000       1.00000       1.00000       1.00000  
hydcha052                     null       1.24001       0.18734       0.00780       0.23389       0.05000       1.00000       0.01000       0.00500       6.61904       0.00100      12.00000      50.00000       0.04000       1.00000       0.50000       0.50000       1.00000       1.00000       1.00000       1.00000       1.00000  
hydcha053                     null       0.42849       0.09849       0.00001       0.04412       0.05000       1.00000       0.01000       0.00500       4.35073       0.00100      12.00000      50.00000       0.04000       1.00000       0.50000       0.50000       1.00000       1.00000       1.00000       1.00000       1.00000  
hydcha054                     null       0.13793       0.04960       0.00216       0.56311       0.05000       1.00000       0.01000       0.00500       2.78080       0.00100      12.00000      50.00000       0.04000       1.00000       0.50000       0.50000       1.00000       1.00000       1.00000       1.00000       1.00000  
hydcha055                     null       0.15498       0.05323       0.00095       0.20579       0.05000       1.00000       0.01000       0.00500       2.91178       0.00100      12.00000      50.00000       0.04000       1.00000       0.50000       0.50000       1.00000       1.00000       1.00000       1.00000       1.00000  
hydcha056                     null       0.46147       0.10301       0.00554       0.91533       0.05000       1.00000       0.01000       0.00500       4.48000       0.00100      12.00000      50.00000       0.04000       1.00000       0.50000       0.50000       1.00000       1.00000       1.00000       1.00000       1.00000  
hydcha057                     null       1.35615       0.19777       0.03364       0.24735       0.05000       1.00000       0.01000       0.00500       6.85724       0.00100      12.00000      50.00000       0.04000       1.00000       0.50000       0.50000       1.00000       1.00000       1.00000       1.00000       1.00000  
hydcha058                     null       0.09686       0.04005       0.00142       0.24022       0.05000       1.00000       0.01000       0.00500       2.41854       0.00100      12.00000      50.00000       0.04000       1.00000       0.50000       0.50000       1.00000       1.00000       1.00000       1.00000       1.00000  
hydcha059                     null       0.67218       0.12933       0.00410       0.69748       0.05000       1.00000       0.01000       0.00500       5.19731       0.00100      12.00000      50.00000       0.04000       1.00000       0.50000       0.50000       1.00000       1.00000       1.00000       1.00000       1.00000  
hydcha060                     null       1.30067       0.19283       0.00001       0.07750       0.05000       1.00000       0.01000       0.00500       6.74506       0.00100      12.00000      50.00000       0.04000       1.00000       0.50000       0.50000       1.00000       1.00000       1.00000       1.00000       1.00000  
hydcha061                     null       0.49521       0.10750       0.00116       0.30818       0.05000       1.00000       0.01000       0.00500       4.60660       0.00100      12.00000      50.00000       0.04000       1.00000       0.50000       0.50000       1.00000       1.00000       1.00000       1.00000       1.00000  
hydcha062                     null       0.08626       0.03734       0.00001       0.06079       0.05000       1.00000       0.01000       0.00500       2.31031       0.00100      12.00000      50.00000       0.04000       1.00000       0.50000       0.50000       1.00000       1.00000       1.00000       1.00000       1.00000  
hydcha063                     null       0.10717       0.04258       0.00371       0.20687       0.05000       1.00000       0.01000       0.00500       2.51710       0.00100      12.00000      50.00000       0.04000       1.00000       0.50000       0.50000       1.00000       1.00000       1.00000       1.00000       1.00000  
hydcha064                     null       0.22887       0.06739       0.00743       0.13808       0.05000       1.00000       0.01000       0.00500       3.39638       0.00100      12.00000      50.00000       0.04000       1.00000       0.50000       0.50000       1.00000       1.00000       1.00000       1.00000       1.00000  
hydcha065                     null       2.30048       0.27229       0.00235       1.33651       0.05000       1.00000       0.01000       0.00500       8.44850       0.00100      12.00000      50.00000       0.04000       1.00000       0.50000       0.50000       1.00000       1.00000       1.00000       1.00000       1.00000  
hydcha066                     null       0.14772       0.05170       0.00238       0.45882       0.05000       1.00000       0.01000       0.00500       2.85709       0.00100      12.00000      50.00000       0.04000       1.00000       0.50000       0.50000       1.00000       1.00000       1.00000       1.00000       1.00000  
hydcha067                     null       0.07643       0.03470       0.00588       0.04753       0.05000       1.00000       0.01000       0.00500       2.20257       0.00100      12.00000      50.00000       0.04000       1.00000       0.50000       0.50000       1.00000       1.00000       1.00000       1.00000       1.00000  
hydcha068                     null       0.31083       0.08110       0.00227       0.99410       0.05000       1.00000       0.01000       0.00500       3.83272       0.00100      12.00000      50.00000       0.04000       1.00000       0.50000       0.50000       1.00000       1.00000       1.00000       1.00000       1.00000  
hydcha069                     null       0.45508       0.10214       0.00309       0.75878       0.05000       1.00000       0.01000       0.00500       4.45538       0.00100      12.00000      50.00000       0.04000       1.00000       0.50000       0.50000       1.00000       1.00000       1.00000       1.00000       1.00000  
hydcha070                     null       0.45313       0.10188       0.00540       0.52382       0.05000       1.00000       0.01000       0.00500       4.44784       0.00100      12.00000      50.00000       0.04000       1.00000       0.50000       0.50000       1.00000       1.00000       1.00000       1.00000       1.00000  
hydcha071                     null       0.43018       0.09872       0.00070       0.46740       0.05000       1.00000       0.01000       0.00500       4.35748       0.00100      12.00000      50.00000       0.04000       1.00000       0.50000       0.50000       1.00000       1.00000       1.00000       1.00000       1.00000  
hydcha072                     null       0.18030       0.05833       0.00800       0.80107       0.05000       1.00000       0.01000       0.00500       3.09103       0.00100      12.00000      50.00000       0.04000       1.00000       0.50000       0.50000       1.00000       1.00000       1.00000       1.00000       1.00000  
hydcha073                     null       0.52376       0.11121       0.01756       0.05284       0.05000       1.00000       0.01000       0.00500       4.70970       0.00100      12.00000      50.00000       0.04000       1.00000       0.50000       0.50000       1.00000       1.00000       1.00000       1.00000       1.00000  
hydcha074                     null       0.06568       0.03166       0.00001       0.02921       0.05000       1.00000       0.01000       0.00500       2.07455       0.00100      12.00000      50.00000       0.04000       1.00000       0.50000       0.50000       1.00000       1.00000       1.00000       1.00000       1.00000  
hydcha075                     null       0.43871       0.09990       0.03997       0.18955       0.05000       1.00000       0.01000       0.00500       4.39140       0.00100      12.00000      50.00000       0.04000       1.00000       0.50000       0.50000       1.00000       1.00000       1.00000       1.00000       1.00000  
hydcha076                     null       0.45550       0.10220       0.00192       0.43600       0.05000       1.00000       0.01000       0.00500       4.45704       0.00100      12.00000      50.00000       0.04000       1.00000       0.50000       0.50000       1.00000       1.00000       1.00000       1.00000       1.00000  
hydcha077                     null       0.13884       0.04980       0.00272       0.31747       0.05000       1.00000       0.01000       0.00500       2.78797       0.00100      12.00000      50.00000       0.04000       1.00000       0.50000       0.50000       1.00000       1.00000       1.00000       1.00000       1.00000  
hydcha078                     null       0.23446       0.06838       0.00334       0.54913       0.05000       1.00000       0.01000       0.00500       3.42890       0.00100      12.00000      50.00000       0.04000       1.00000       0.50000       0.50000       1.00000       1.00000       1.00000       1.00000       1.00000  
hydcha079                     null       0.11051       0.04338       0.00134       0.14298       0.05000       1.00000       0.01000       0.00500       2.54772       0.00100      12.00000      50.00000       0.04000       1.00000       0.50000       0.50000       1.00000       1.00000       1.00000       1.00000       1.00000  
hydcha080                     null       0.40727       0.09551       0.00234       0.98044       0.05000       1.00000       0.01000       0.00500       4.26432       0.00100      12.00000      50.00000       0.04000       1.00000       0.50000       0.50000       1.00000       1.00000       1.00000       1.00000       1.00000  
hydcha081                     null       0.12614       0.04699       0.00001       0.41671       0.05000       1.00000       0.01000       0.00500       2.68434       0.00100      12.00000      50.00000       0.04000       1.00000       0.50000       0.50000       1.00000       1.00000       1.00000       1.00000       1.00000  
hydcha082                     null       0.41576       0.09671       0.00184       0.76553       0.05000       1.00000       0.01000       0.00500       4.29921       0.00100      12.00000      50.00000       0.04000       1.00000       0.50000       0.50000       1.00000       1.00000       1.00000       1.00000       1.00000  
hydcha083                     null       1.45887       0.20670       0.00161       1.00676       0.05000       1.00000       0.01000       0.00500       7.05781       0.00100      12.00000      50.00000       0.04000       1.00000       0.50000       0.50000       1.00000       1.00000       1.00000       1.00000       1.00000  
hydcha084                     null       0.34390       0.08622       0.00001       0.44606       0.05000       1.00000       0.01000       0.00500       3.98883       0.00100      12.00000      50.00000       0.04000       1.00000       0.50000       0.50000       1.00000       1.00000       1.00000       1.00000       1.00000  
hydcha085                     null       0.19043       0.06029       0.00163       0.34472       0.05000       1.00000       0.01000       0.00500       3.15852       0.00100      12.00000      50.00000       0.04000       1.00000       0.50000       0.50000       1.00000       1.00000       1.00000       1.00000       1.00000  
hydcha086                     null       0.52669       0.11159       0.00030       0.14889       0.05000       1.00000       0.01000       0.00500       4.72008       0.00100      12.00000      50.00000       0.04000       1.00000       0.50000       0.50000       1.00000       1.00000       1.00000       1.00000       1.00000  
hydcha087                     null       0.53073       0.11210       0.00001       0.16366       0.05000       1.00000       0.01000       0.00500       4.73434       0.00100      12.00000      50.00000       0.04000       1.00000       0.50000       0.50000       1.00000       1.00000       1.00000       1.00000       1.00000  
hydcha088                     null       0.14126       0.05032       0.00001       0.04062       0.05000       1.00000       0.01000       0.00500       2.80711       0.00100      12.00000      50.00000       0.04000       1.00000       0.50000       0.50000       1.00000       1.00000       1.00000       1.00000       1.00000  
hydcha089                     null       3.17265       0.33076       0.00049       0.13232       0.05000       1.00000       0.01000       0.00500       9.59196       0.00100      12.00000      50.00000       0.04000       1.00000       0.50000       0.50000       1.00000       1.00000       1.00000       1.00000       1.00000  