hydrology.wet: written by SWAT+ editor v2.1.0 on 2024-09-05 13:47 for SWAT+ rev.60.5.4
name                    hru_ps         dp_ps        hru_es         dp_es             k          evap   vol_area_co      vol_dp_a      vol_dp_b      hru_frac  
hydwet3092             0.10000      20.00000       0.25000     100.00000       0.01000       0.70000       1.00000       1.00000       1.00000       0.50000  
hydwet3093             0.10000      20.00000       0.25000     100.00000       0.01000       0.70000       1.00000       1.00000       1.00000       0.50000  
hydwet3094             0.10000      20.00000       0.25000     100.00000       0.01000       0.70000       1.00000       1.00000       1.00000       0.50000  
hydwet3095             0.10000      20.00000       0.25000     100.00000       0.01000       0.70000       1.00000       1.00000       1.00000       0.50000  
hydwet3808             0.10000      20.00000       0.25000     100.00000       0.01000       0.70000       1.00000       1.00000       1.00000       0.50000  
