hydrology.hyd: written by SWATrunR on 2024-09-17 13:10:38.501125
name                  lat_ttime         lat_sed         can_max            esco            epco     orgn_enrich     orgp_enrich         cn3_swf         bio_mix           perco        lat_orgn        lat_orgp        harg_pet         latq_co
hyd0001                       0               0               1             0.1               1               0               0            0.95             0.2             0.9               0               0               0            0.01
hyd0002                       0               0               1             0.1               1               0               0               0             0.2             0.5               0               0               0             0.9
hyd0003                       0               0               1             0.1               1               0               0             0.3             0.2             0.9               0               0               0             0.2
hyd0004                       0               0               1             0.1               1               0               0            0.95             0.2             0.9               0               0               0            0.01
hyd0005                       0               0               1             0.1               1               0               0            0.95             0.2             0.9               0               0               0            0.01
hyd0006                       0               0               1             0.1               1               0               0            0.95             0.2             0.9               0               0               0            0.01
hyd0007                       0               0               1             0.1               1               0               0             0.3             0.2             0.5               0               0               0             0.2
hyd0008                       0               0               1             0.1               1               0               0            0.95             0.2             0.9               0               0               0            0.01
hyd0009                       0               0               1             0.1               1               0               0            0.95             0.2            0.05               0               0               0            0.01
hyd0010                       0               0               1             0.1               1               0               0            0.95             0.2             0.9               0               0               0            0.01
hyd0011                       0               0               1             0.1               1               0               0            0.95             0.2             0.9               0               0               0            0.01
hyd0012                       0               0               1             0.1               1               0               0            0.95             0.2             0.9               0               0               0            0.01
hyd0013                       0               0               1             0.1               1               0               0            0.95             0.2             0.9               0               0               0            0.01
hyd0014                       0               0               1             0.1               1               0               0            0.95             0.2             0.9               0               0               0            0.01
hyd0015                       0               0               1             0.1               1               0               0             0.3             0.2             0.5               0               0               0             0.2
hyd0016                       0               0               1             0.1               1               0               0            0.95             0.2            0.05               0               0               0            0.01
hyd0017                       0               0               1             0.1               1               0               0             0.3             0.2             0.9               0               0               0             0.2
hyd0018                       0               0               1             0.1               1               0               0               0             0.2             0.5               0               0               0             0.9
hyd0019                       0               0               1             0.1               1               0               0            0.95             0.2             0.9               0               0               0            0.01
hyd0020                       0               0               1             0.1               1               0               0            0.95             0.2             0.9               0               0               0            0.01
hyd0021                       0               0               1             0.1               1               0               0            0.95             0.2             0.5               0               0               0            0.01
hyd0022                       0               0               1             0.1               1               0               0            0.95             0.2             0.5               0               0               0            0.01
hyd0023                       0               0               1             0.1               1               0               0            0.95             0.2             0.5               0               0               0            0.01
hyd0024                       0               0               1             0.1               1               0               0            0.95             0.2             0.5               0               0               0            0.01
hyd0025                       0               0               1             0.1               1               0               0            0.95             0.2            0.05               0               0               0            0.01
hyd0026                       0               0               1             0.1               1               0               0               0             0.2             0.5               0               0               0             0.9
hyd0027                       0               0               1             0.1               1               0               0            0.95             0.2             0.9               0               0               0            0.01
hyd0028                       0               0               1             0.1               1               0               0            0.95             0.2            0.05               0               0               0            0.01
hyd0029                       0               0               1             0.1               1               0               0               0             0.2             0.5               0               0               0             0.9
hyd0030                       0               0               1             0.1               1               0               0            0.95             0.2             0.9               0               0               0            0.01
hyd0031                       0               0               1             0.1               1               0               0            0.95             0.2            0.05               0               0               0            0.01
hyd0032                       0               0               1             0.1               1               0               0             0.3             0.2             0.5               0               0               0             0.2
hyd0033                       0               0               1             0.1               1               0               0            0.95             0.2            0.05               0               0               0            0.01
hyd0034                       0               0               1             0.1               1               0               0               0             0.2             0.5               0               0               0             0.9
hyd0035                       0               0               1             0.1               1               0               0               0             0.2             0.5               0               0               0             0.9
hyd0036                       0               0               1             0.1               1               0               0            0.95             0.2            0.05               0               0               0            0.01
hyd0037                       0               0               1             0.1               1               0               0            0.95             0.2            0.05               0               0               0            0.01
hyd0038                       0               0               1             0.1               1               0               0             0.3             0.2             0.5               0               0               0             0.2
hyd0039                       0               0               1             0.1               1               0               0            0.95             0.2            0.05               0               0               0            0.01
hyd0040                       0               0               1             0.1               1               0               0            0.95             0.2            0.05               0               0               0            0.01
hyd0041                       0               0               1             0.1               1               0               0            0.95             0.2            0.05               0               0               0            0.01
hyd0042                       0               0               1             0.1               1               0               0            0.95             0.2             0.5               0               0               0            0.01
hyd0043                       0               0               1             0.1               1               0               0             0.3             0.2             0.5               0               0               0             0.2
hyd0044                       0               0               1             0.1               1               0               0            0.95             0.2             0.5               0               0               0            0.01
hyd0045                       0               0               1             0.1               1               0               0            0.95             0.2             0.5               0               0               0            0.01
hyd0046                       0               0               1             0.1               1               0               0            0.95             0.2            0.05               0               0               0            0.01
hyd0047                       0               0               1             0.1               1               0               0            0.95             0.2            0.05               0               0               0            0.01
hyd0048                       0               0               1             0.1               1               0               0            0.95             0.2            0.05               0               0               0            0.01
hyd0049                       0               0               1             0.1               1               0               0             0.3             0.2             0.5               0               0               0             0.2
hyd0050                       0               0               1             0.1               1               0               0            0.95             0.2            0.05               0               0               0            0.01
hyd0051                       0               0               1             0.1               1               0               0            0.95             0.2             0.5               0               0               0            0.01
hyd0052                       0               0               1             0.1               1               0               0             0.3             0.2             0.5               0               0               0             0.2
hyd0053                       0               0               1             0.1               1               0               0            0.95             0.2            0.05               0               0               0            0.01
hyd0054                       0               0               1             0.1               1               0               0            0.95             0.2            0.05               0               0               0            0.01
hyd0055                       0               0               1             0.1               1               0               0            0.95             0.2            0.05               0               0               0            0.01
hyd0056                       0               0               1             0.1               1               0               0            0.95             0.2            0.05               0               0               0            0.01
hyd0057                       0               0               1             0.1               1               0               0            0.95             0.2            0.05               0               0               0            0.01
hyd0058                       0               0               1             0.1               1               0               0            0.95             0.2            0.05               0               0               0            0.01
hyd0059                       0               0               1             0.1               1               0               0            0.95             0.2            0.05               0               0               0            0.01
hyd0060                       0               0               1             0.1               1               0               0            0.95             0.2            0.05               0               0               0            0.01
hyd0061                       0               0               1             0.1               1               0               0            0.95             0.2            0.05               0               0               0            0.01
hyd0062                       0               0               1             0.1               1               0               0             0.3             0.2             0.5               0               0               0             0.2
hyd0063                       0               0               1             0.1               1               0               0            0.95             0.2             0.5               0               0               0            0.01
hyd0064                       0               0               1             0.1               1               0               0            0.95             0.2            0.05               0               0               0            0.01
hyd0065                       0               0               1             0.1               1               0               0            0.95             0.2            0.05               0               0               0            0.01
hyd0066                       0               0               1             0.1               1               0               0            0.95             0.2            0.05               0               0               0            0.01
hyd0067                       0               0               1             0.1               1               0               0            0.95             0.2             0.5               0               0               0            0.01
hyd0068                       0               0               1             0.1               1               0               0            0.95             0.2            0.05               0               0               0            0.01
hyd0069                       0               0               1             0.1               1               0               0            0.95             0.2             0.5               0               0               0            0.01
hyd0070                       0               0               1             0.1               1               0               0             0.3             0.2             0.5               0               0               0             0.2
hyd0071                       0               0               1             0.1               1               0               0            0.95             0.2            0.05               0               0               0            0.01
hyd0072                       0               0               1             0.1               1               0               0             0.3             0.2             0.5               0               0               0             0.2
hyd0073                       0               0               1             0.1               1               0               0             0.3             0.2             0.5               0               0               0             0.2
hyd0074                       0               0               1             0.1               1               0               0             0.3             0.2             0.5               0               0               0             0.2
hyd0075                       0               0               1             0.1               1               0               0            0.95             0.2            0.05               0               0               0            0.01
hyd0076                       0               0               1             0.1               1               0               0            0.95             0.2            0.05               0               0               0            0.01
hyd0077                       0               0               1             0.1               1               0               0            0.95             0.2            0.05               0               0               0            0.01
hyd0078                       0               0               1             0.1               1               0               0            0.95             0.2            0.05               0               0               0            0.01
hyd0079                       0               0               1             0.1               1               0               0             0.3             0.2             0.5               0               0               0             0.2
hyd0080                       0               0               1             0.1               1               0               0            0.95             0.2            0.05               0               0               0            0.01
hyd0081                       0               0               1             0.1               1               0               0            0.95             0.2             0.5               0               0               0            0.01
hyd0082                       0               0               1             0.1               1               0               0             0.3             0.2             0.5               0               0               0             0.2
hyd0083                       0               0               1             0.1               1               0               0            0.95             0.2            0.05               0               0               0            0.01
hyd0084                       0               0               1             0.1               1               0               0            0.95             0.2             0.5               0               0               0            0.01
hyd0085                       0               0               1             0.1               1               0               0            0.95             0.2            0.05               0               0               0            0.01
hyd0086                       0               0               1             0.1               1               0               0            0.95             0.2            0.05               0               0               0            0.01
hyd0087                       0               0               1             0.1               1               0               0            0.95             0.2            0.05               0               0               0            0.01
hyd0088                       0               0               1             0.1               1               0               0            0.95             0.2            0.05               0               0               0            0.01
hyd0089                       0               0               1             0.1               1               0               0            0.95             0.2            0.05               0               0               0            0.01
hyd0090                       0               0               1             0.1               1               0               0             0.3             0.2             0.5               0               0               0             0.2
hyd0091                       0               0               1             0.1               1               0               0            0.95             0.2            0.05               0               0               0            0.01
hyd0092                       0               0               1             0.1               1               0               0            0.95             0.2            0.05               0               0               0            0.01
hyd0093                       0               0               1             0.1               1               0               0               0             0.2             0.5               0               0               0             0.9
hyd0094                       0               0               1             0.1               1               0               0            0.95             0.2            0.05               0               0               0            0.01
hyd0095                       0               0               1             0.1               1               0               0             0.3             0.2             0.5               0               0               0             0.2
hyd0096                       0               0               1             0.1               1               0               0               0             0.2             0.5               0               0               0             0.9
hyd0097                       0               0               1             0.1               1               0               0             0.3             0.2             0.5               0               0               0             0.2
hyd0098                       0               0               1             0.1               1               0               0            0.95             0.2            0.05               0               0               0            0.01
hyd0099                       0               0               1             0.1               1               0               0            0.95             0.2            0.05               0               0               0            0.01
hyd0100                       0               0               1             0.1               1               0               0            0.95             0.2            0.05               0               0               0            0.01
hyd0101                       0               0               1             0.1               1               0               0            0.95             0.2             0.5               0               0               0            0.01
hyd0102                       0               0               1             0.1               1               0               0            0.95             0.2            0.05               0               0               0            0.01
hyd0103                       0               0               1             0.1               1               0               0            0.95             0.2            0.05               0               0               0            0.01
hyd0104                       0               0               1             0.1               1               0               0            0.95             0.2            0.05               0               0               0            0.01
hyd0105                       0               0               1             0.1               1               0               0            0.95             0.2             0.5               0               0               0            0.01
hyd0106                       0               0               1             0.1               1               0               0            0.95             0.2            0.05               0               0               0            0.01
hyd0107                       0               0               1             0.1               1               0               0            0.95             0.2            0.05               0               0               0            0.01
hyd0108                       0               0               1             0.1               1               0               0            0.95             0.2            0.05               0               0               0            0.01
hyd0109                       0               0               1             0.1               1               0               0            0.95             0.2             0.5               0               0               0            0.01
hyd0110                       0               0               1             0.1               1               0               0            0.95             0.2            0.05               0               0               0            0.01
hyd0111                       0               0               1             0.1               1               0               0            0.95             0.2             0.5               0               0               0            0.01
hyd0112                       0               0               1             0.1               1               0               0             0.3             0.2             0.5               0               0               0             0.2
hyd0113                       0               0               1             0.1               1               0               0            0.95             0.2             0.5               0               0               0            0.01
hyd0114                       0               0               1             0.1               1               0               0            0.95             0.2            0.05               0               0               0            0.01
hyd0115                       0               0               1             0.1               1               0               0            0.95             0.2             0.5               0               0               0            0.01
hyd0116                       0               0               1             0.1               1               0               0            0.95             0.2            0.05               0               0               0            0.01
hyd0117                       0               0               1             0.1               1               0               0            0.95             0.2            0.05               0               0               0            0.01
hyd0118                       0               0               1             0.1               1               0               0            0.95             0.2            0.05               0               0               0            0.01
hyd0119                       0               0               1             0.1               1               0               0            0.95             0.2            0.05               0               0               0            0.01
hyd0120                       0               0               1             0.1               1               0               0             0.3             0.2             0.5               0               0               0             0.2
hyd0121                       0               0               1             0.1               1               0               0            0.95             0.2             0.5               0               0               0            0.01
hyd0122                       0               0               1             0.1               1               0               0            0.95             0.2            0.05               0               0               0            0.01
hyd0123                       0               0               1             0.1               1               0               0            0.95             0.2            0.05               0               0               0            0.01