landuse.lum: written by SWAT+ editor v2.1.0 on 2024-09-05 13:48 for SWAT+ rev.60.5.4 and edited with SWATfarmR 2.0.5 on 2024-09-11 08:08:27.79936
name                         cal_group          plnt_com               mgt               cn2         cons_prac             urban            urb_ro           ov_mann              tile               sep               vfs              grww               bmp
barr_lum                          null         barr_comm              null           brush_g     up_down_slope              null              null      range_sparse              null              null              null              null              null
barr_pond_12_lum                  null barr_pond_12_comm              null           brush_g     up_down_slope              null              null      range_sparse              null              null              null              null              null
barr_pond_46_lum                  null barr_pond_46_comm              null           brush_g     up_down_slope              null              null      range_sparse              null              null              null              null              null
barr_pond_62_lum                  null barr_pond_62_comm              null           brush_g     up_down_slope              null              null      range_sparse              null              null              null              null              null
barr_pond_79_lum                  null barr_pond_79_comm              null           brush_g     up_down_slope              null              null      range_sparse              null              null              null              null              null
bros_lum                          null         bros_comm              null           brush_g     up_down_slope              null              null      range_sparse              null              null              null              null              null
bros_pond_69_drn_lum              null bros_pond_69_drn_comm              null           brush_g     up_down_slope              null              null      range_sparse         mw24_1000              null              null              null              null
fld1000_drn_lum_1000_1              null fld1000_drn_comm_1000_1 fld1000_drn_mgt_1000_1     rc_strowres_g     up_down_slope              null              null      convtill_res         mw24_1000              null              null              null              null
fld1001_drn_lum_1001_1              null fld1001_drn_comm_1001_1 fld1001_drn_mgt_1001_1     rc_strowres_g     up_down_slope              null              null      convtill_res         mw24_1000              null              null              null              null
fld1002_drn_lum_1002_1              null fld1002_drn_comm_1002_1 fld1002_drn_mgt_1002_1     rc_strowres_g     up_down_slope              null              null      convtill_res         mw24_1000              null              null              null              null
fld1003_drn_lum_1003_1              null fld1003_drn_comm_1003_1 fld1003_drn_mgt_1003_1     rc_strowres_g     up_down_slope              null              null      convtill_res         mw24_1000              null              null              null              null
fld1004_lum_1004_1                null fld1004_comm_1004_1 fld1004_mgt_1004_1     rc_strowres_g     up_down_slope              null              null      convtill_res              null              null              null              null              null
fld1005_drn_lum_1005_1              null fld1005_drn_comm_1005_1 fld1005_drn_mgt_1005_1     rc_strowres_g     up_down_slope              null              null      convtill_res         mw24_1000              null              null              null              null
fld1006_drn_lum_1006_1              null fld1006_drn_comm_1006_1 fld1006_drn_mgt_1006_1     rc_strowres_g     up_down_slope              null              null      convtill_res         mw24_1000              null              null              null              null
fld1007_lum_1007_1                null fld1007_comm_1007_1 fld1007_mgt_1007_1     rc_strowres_g     up_down_slope              null              null      convtill_res              null              null              null              null              null
fld1008_drn_lum_1008_1              null fld1008_drn_comm_1008_1 fld1008_drn_mgt_1008_1     rc_strowres_g     up_down_slope              null              null      convtill_res         mw24_1000              null              null              null              null
fld1009_drn_lum_1009_1              null fld1009_drn_comm_1009_1 fld1009_drn_mgt_1009_1     rc_strowres_g     up_down_slope              null              null      convtill_res         mw24_1000              null              null              null              null
fld100_drn_lum_100_1              null fld100_drn_comm_100_1 fld100_drn_mgt_100_1     rc_strowres_g     up_down_slope              null              null      convtill_res         mw24_1000              null              null              null              null
fld1010_drn_lum_1010_1              null fld1010_drn_comm_1010_1 fld1010_drn_mgt_1010_1     rc_strowres_g     up_down_slope              null              null      convtill_res         mw24_1000              null              null              null              null
fld1011_drn_lum_1011_1              null fld1011_drn_comm_1011_1 fld1011_drn_mgt_1011_1     rc_strowres_g     up_down_slope              null              null      convtill_res         mw24_1000              null              null              null              null
fld1012_drn_lum_1012_1              null fld1012_drn_comm_1012_1 fld1012_drn_mgt_1012_1     rc_strowres_g     up_down_slope              null              null      convtill_res         mw24_1000              null              null              null              null
fld1013_drn_lum_1013_1              null fld1013_drn_comm_1013_1 fld1013_drn_mgt_1013_1     rc_strowres_g     up_down_slope              null              null      convtill_res         mw24_1000              null              null              null              null
fld1014_lum_1014_1                null fld1014_comm_1014_1 fld1014_mgt_1014_1     rc_strowres_g     up_down_slope              null              null      convtill_res              null              null              null              null              null
fld1015_drn_lum_1015_1              null fld1015_drn_comm_1015_1 fld1015_drn_mgt_1015_1     rc_strowres_g     up_down_slope              null              null      convtill_res         mw24_1000              null              null              null              null
fld1016_drn_lum_1016_1              null fld1016_drn_comm_1016_1 fld1016_drn_mgt_1016_1     rc_strowres_g     up_down_slope              null              null      convtill_res         mw24_1000              null              null              null              null
fld1017_lum_1017_1                null fld1017_comm_1017_1 fld1017_mgt_1017_1     rc_strowres_g     up_down_slope              null              null      convtill_res              null              null              null              null              null
fld1018_lum_1018_1                null fld1018_comm_1018_1 fld1018_mgt_1018_1     rc_strowres_g     up_down_slope              null              null      convtill_res              null              null              null              null              null
fld1019_drn_lum_1019_1              null fld1019_drn_comm_1019_1 fld1019_drn_mgt_1019_1     rc_strowres_g     up_down_slope              null              null      convtill_res         mw24_1000              null              null              null              null
fld101_lum_101_1                  null fld101_comm_101_1  fld101_mgt_101_1     rc_strowres_g     up_down_slope              null              null      convtill_res              null              null              null              null              null
fld1020_drn_lum_1020_1              null fld1020_drn_comm_1020_1 fld1020_drn_mgt_1020_1     rc_strowres_g     up_down_slope              null              null      convtill_res         mw24_1000              null              null              null              null
fld1021_drn_lum_1021_1              null fld1021_drn_comm_1021_1 fld1021_drn_mgt_1021_1     rc_strowres_g     up_down_slope              null              null      convtill_res         mw24_1000              null              null              null              null
fld1022_drn_lum_1022_1              null fld1022_drn_comm_1022_1 fld1022_drn_mgt_1022_1     rc_strowres_g     up_down_slope              null              null      convtill_res         mw24_1000              null              null              null              null
fld1023_lum_1023_1                null fld1023_comm_1023_1 fld1023_mgt_1023_1     rc_strowres_g     up_down_slope              null              null      convtill_res              null              null              null              null              null
fld1024_lum_1024_1                null fld1024_comm_1024_1 fld1024_mgt_1024_1     rc_strowres_g     up_down_slope              null              null      convtill_res              null              null              null              null              null
fld1025_drn_lum_1025_1              null fld1025_drn_comm_1025_1 fld1025_drn_mgt_1025_1     rc_strowres_g     up_down_slope              null              null      convtill_res         mw24_1000              null              null              null              null
fld1026_drn_lum_1026_1              null fld1026_drn_comm_1026_1 fld1026_drn_mgt_1026_1     rc_strowres_g     up_down_slope              null              null      convtill_res         mw24_1000              null              null              null              null
fld1027_lum_1027_1                null fld1027_comm_1027_1 fld1027_mgt_1027_1     rc_strowres_g     up_down_slope              null              null      convtill_res              null              null              null              null              null
fld1028_drn_lum_1028_1              null fld1028_drn_comm_1028_1 fld1028_drn_mgt_1028_1     rc_strowres_g     up_down_slope              null              null      convtill_res         mw24_1000              null              null              null              null
fld1029_buffer_56_drn_lum_4273_1              null fld1029_buffer_56_drn_comm_4273_1 fld1029_buffer_56_drn_mgt_4273_1     rc_strowres_g     up_down_slope              null              null      convtill_res         mw24_1000              null              null              null              null
fld1029_drn_lum_1029_1              null fld1029_drn_comm_1029_1 fld1029_drn_mgt_1029_1     rc_strowres_g     up_down_slope              null              null      convtill_res         mw24_1000              null              null              null              null
fld102_drn_lum_102_1              null fld102_drn_comm_102_1 fld102_drn_mgt_102_1     rc_strowres_g     up_down_slope              null              null      convtill_res         mw24_1000              null              null              null              null
fld1030_drn_lum_1030_1              null fld1030_drn_comm_1030_1 fld1030_drn_mgt_1030_1     rc_strowres_g     up_down_slope              null              null      convtill_res         mw24_1000              null              null              null              null
fld1031_drn_lum_1031_1              null fld1031_drn_comm_1031_1 fld1031_drn_mgt_1031_1     rc_strowres_g     up_down_slope              null              null      convtill_res         mw24_1000              null              null              null              null
fld1032_drn_lum_1032_1              null fld1032_drn_comm_1032_1 fld1032_drn_mgt_1032_1     rc_strowres_g     up_down_slope              null              null      convtill_res         mw24_1000              null              null              null              null
fld1033_drn_lum_1033_1              null fld1033_drn_comm_1033_1 fld1033_drn_mgt_1033_1     rc_strowres_g     up_down_slope              null              null      convtill_res         mw24_1000              null              null              null              null
fld1034_drn_lum_1034_1              null fld1034_drn_comm_1034_1 fld1034_drn_mgt_1034_1     rc_strowres_g     up_down_slope              null              null      convtill_res         mw24_1000              null              null              null              null
fld1035_buffer_24_drn_lum_4241_1              null fld1035_buffer_24_drn_comm_4241_1 fld1035_buffer_24_drn_mgt_4241_1     rc_strowres_g     up_down_slope              null              null      convtill_res         mw24_1000              null              null              null              null
fld1035_drn_lum_1035_1              null fld1035_drn_comm_1035_1 fld1035_drn_mgt_1035_1     rc_strowres_g     up_down_slope              null              null      convtill_res         mw24_1000              null              null              null              null
fld1036_drn_lum_1036_1              null fld1036_drn_comm_1036_1 fld1036_drn_mgt_1036_1     rc_strowres_g     up_down_slope              null              null      convtill_res         mw24_1000              null              null              null              null
fld1037_lum_1037_1                null fld1037_comm_1037_1 fld1037_mgt_1037_1     rc_strowres_g     up_down_slope              null              null      convtill_res              null              null              null              null              null
fld1038_drn_lum_1038_1              null fld1038_drn_comm_1038_1 fld1038_drn_mgt_1038_1     rc_strowres_g     up_down_slope              null              null      convtill_res         mw24_1000              null              null              null              null
fld1039_drn_lum_1039_1              null fld1039_drn_comm_1039_1 fld1039_drn_mgt_1039_1     rc_strowres_g     up_down_slope              null              null      convtill_res         mw24_1000              null              null              null              null
fld103_drn_lum_103_1              null fld103_drn_comm_103_1 fld103_drn_mgt_103_1     rc_strowres_g     up_down_slope              null              null      convtill_res         mw24_1000              null              null              null              null
fld1040_lum_1040_1                null fld1040_comm_1040_1 fld1040_mgt_1040_1     rc_strowres_g     up_down_slope              null              null      convtill_res              null              null              null              null              null
fld1041_lum_1041_1                null fld1041_comm_1041_1 fld1041_mgt_1041_1     rc_strowres_g     up_down_slope              null              null      convtill_res              null              null              null              null              null
fld1041_pond_150_lum_4223_1              null fld1041_pond_150_comm_4223_1 fld1041_pond_150_mgt_4223_1     rc_strowres_g     up_down_slope              null              null      convtill_res              null              null              null              null              null
fld1042_lum_1042_1                null fld1042_comm_1042_1 fld1042_mgt_1042_1     rc_strowres_g     up_down_slope              null              null      convtill_res              null              null              null              null              null
fld1043_drn_lum_1043_1              null fld1043_drn_comm_1043_1 fld1043_drn_mgt_1043_1     rc_strowres_g     up_down_slope              null              null      convtill_res         mw24_1000              null              null              null              null
fld1044_drn_lum_1044_1              null fld1044_drn_comm_1044_1 fld1044_drn_mgt_1044_1     rc_strowres_g     up_down_slope              null              null      convtill_res         mw24_1000              null              null              null              null
fld1045_drn_lum_1045_1              null fld1045_drn_comm_1045_1 fld1045_drn_mgt_1045_1     rc_strowres_g     up_down_slope              null              null      convtill_res         mw24_1000              null              null              null              null
fld1046_drn_lum_1046_1              null fld1046_drn_comm_1046_1 fld1046_drn_mgt_1046_1     rc_strowres_g     up_down_slope              null              null      convtill_res         mw24_1000              null              null              null              null
fld1047_drn_lum_1047_1              null fld1047_drn_comm_1047_1 fld1047_drn_mgt_1047_1     rc_strowres_g     up_down_slope              null              null      convtill_res         mw24_1000              null              null              null              null
fld1048_drn_lum_1048_1              null fld1048_drn_comm_1048_1 fld1048_drn_mgt_1048_1     rc_strowres_g     up_down_slope              null              null      convtill_res         mw24_1000              null              null              null              null
fld1049_drn_lum_1049_1              null fld1049_drn_comm_1049_1 fld1049_drn_mgt_1049_1     rc_strowres_g     up_down_slope              null              null      convtill_res         mw24_1000              null              null              null              null
fld104_drn_lum_104_1              null fld104_drn_comm_104_1 fld104_drn_mgt_104_1     rc_strowres_g     up_down_slope              null              null      convtill_res         mw24_1000              null              null              null              null
fld1050_lum_1050_1                null fld1050_comm_1050_1 fld1050_mgt_1050_1     rc_strowres_g     up_down_slope              null              null      convtill_res              null              null              null              null              null
fld1050_pond_57_lum_4100_1              null fld1050_pond_57_comm_4100_1 fld1050_pond_57_mgt_4100_1     rc_strowres_g     up_down_slope              null              null      convtill_res              null              null              null              null              null
fld105_lum_105_1                  null fld105_comm_105_1  fld105_mgt_105_1     rc_strowres_g     up_down_slope              null              null      convtill_res              null              null              null              null              null
fld106_drn_lum_106_1              null fld106_drn_comm_106_1 fld106_drn_mgt_106_1     rc_strowres_g     up_down_slope              null              null      convtill_res         mw24_1000              null              null              null              null
fld107_drn_lum_107_1              null fld107_drn_comm_107_1 fld107_drn_mgt_107_1     rc_strowres_g     up_down_slope              null              null      convtill_res         mw24_1000              null              null              null              null
fld108_drn_lum_108_1              null fld108_drn_comm_108_1 fld108_drn_mgt_108_1     rc_strowres_g     up_down_slope              null              null      convtill_res         mw24_1000              null              null              null              null
fld109_lum_109_1                  null fld109_comm_109_1  fld109_mgt_109_1     rc_strowres_g     up_down_slope              null              null      convtill_res              null              null              null              null              null
fld10_lum_10_1                    null   fld10_comm_10_1    fld10_mgt_10_1     rc_strowres_g     up_down_slope              null              null      convtill_res              null              null              null              null              null
fld110_drn_lum_110_1              null fld110_drn_comm_110_1 fld110_drn_mgt_110_1     rc_strowres_g     up_down_slope              null              null      convtill_res         mw24_1000              null              null              null              null
fld111_lum_111_1                  null fld111_comm_111_1  fld111_mgt_111_1     rc_strowres_g     up_down_slope              null              null      convtill_res              null              null              null              null              null
fld112_lum_112_1                  null fld112_comm_112_1  fld112_mgt_112_1     rc_strowres_g     up_down_slope              null              null      convtill_res              null              null              null              null              null
fld113_lum_113_1                  null fld113_comm_113_1  fld113_mgt_113_1     rc_strowres_g     up_down_slope              null              null      convtill_res              null              null              null              null              null
fld114_drn_lum_114_1              null fld114_drn_comm_114_1 fld114_drn_mgt_114_1     rc_strowres_g     up_down_slope              null              null      convtill_res         mw24_1000              null              null              null              null
fld115_lum_115_1                  null fld115_comm_115_1  fld115_mgt_115_1     rc_strowres_g     up_down_slope              null              null      convtill_res              null              null              null              null              null
fld116_drn_lum_116_1              null fld116_drn_comm_116_1 fld116_drn_mgt_116_1     rc_strowres_g     up_down_slope              null              null      convtill_res         mw24_1000              null              null              null              null
fld117_drn_lum_117_1              null fld117_drn_comm_117_1 fld117_drn_mgt_117_1     rc_strowres_g     up_down_slope              null              null      convtill_res         mw24_1000              null              null              null              null
fld118_drn_lum_118_1              null fld118_drn_comm_118_1 fld118_drn_mgt_118_1     rc_strowres_g     up_down_slope              null              null      convtill_res         mw24_1000              null              null              null              null
fld119_drn_lum_119_1              null fld119_drn_comm_119_1 fld119_drn_mgt_119_1     rc_strowres_g     up_down_slope              null              null      convtill_res         mw24_1000              null              null              null              null
fld11_lum_11_1                    null   fld11_comm_11_1    fld11_mgt_11_1     rc_strowres_g     up_down_slope              null              null      convtill_res              null              null              null              null              null
fld120_lum_120_1                  null fld120_comm_120_1  fld120_mgt_120_1     rc_strowres_g     up_down_slope              null              null      convtill_res              null              null              null              null              null
fld121_lum_121_1                  null fld121_comm_121_1  fld121_mgt_121_1     rc_strowres_g     up_down_slope              null              null      convtill_res              null              null              null              null              null
fld122_drn_lum_122_1              null fld122_drn_comm_122_1 fld122_drn_mgt_122_1     rc_strowres_g     up_down_slope              null              null      convtill_res         mw24_1000              null              null              null              null
fld123_drn_lum_123_1              null fld123_drn_comm_123_1 fld123_drn_mgt_123_1     rc_strowres_g     up_down_slope              null              null      convtill_res         mw24_1000              null              null              null              null
fld124_drn_lum_124_1              null fld124_drn_comm_124_1 fld124_drn_mgt_124_1     rc_strowres_g     up_down_slope              null              null      convtill_res         mw24_1000              null              null              null              null
fld125_drn_lum_125_1              null fld125_drn_comm_125_1 fld125_drn_mgt_125_1     rc_strowres_g     up_down_slope              null              null      convtill_res         mw24_1000              null              null              null              null
fld126_drn_lum_126_1              null fld126_drn_comm_126_1 fld126_drn_mgt_126_1     rc_strowres_g     up_down_slope              null              null      convtill_res         mw24_1000              null              null              null              null
fld127_drn_lum_127_1              null fld127_drn_comm_127_1 fld127_drn_mgt_127_1     rc_strowres_g     up_down_slope              null              null      convtill_res         mw24_1000              null              null              null              null
fld128_drn_lum_128_1              null fld128_drn_comm_128_1 fld128_drn_mgt_128_1     rc_strowres_g     up_down_slope              null              null      convtill_res         mw24_1000              null              null              null              null
fld129_drn_lum_129_1              null fld129_drn_comm_129_1 fld129_drn_mgt_129_1     rc_strowres_g     up_down_slope              null              null      convtill_res         mw24_1000              null              null              null              null
fld12_lum_12_1                    null   fld12_comm_12_1    fld12_mgt_12_1     rc_strowres_g     up_down_slope              null              null      convtill_res              null              null              null              null              null
fld130_drn_lum_130_1              null fld130_drn_comm_130_1 fld130_drn_mgt_130_1     rc_strowres_g     up_down_slope              null              null      convtill_res         mw24_1000              null              null              null              null
fld131_drn_lum_131_1              null fld131_drn_comm_131_1 fld131_drn_mgt_131_1     rc_strowres_g     up_down_slope              null              null      convtill_res         mw24_1000              null              null              null              null
fld132_lum_132_1                  null fld132_comm_132_1  fld132_mgt_132_1     rc_strowres_g     up_down_slope              null              null      convtill_res              null              null              null              null              null
fld133_drn_lum_133_1              null fld133_drn_comm_133_1 fld133_drn_mgt_133_1     rc_strowres_g     up_down_slope              null              null      convtill_res         mw24_1000              null              null              null              null
fld134_drn_lum_134_1              null fld134_drn_comm_134_1 fld134_drn_mgt_134_1     rc_strowres_g     up_down_slope              null              null      convtill_res         mw24_1000              null              null              null              null
fld135_lum_135_1                  null fld135_comm_135_1  fld135_mgt_135_1     rc_strowres_g     up_down_slope              null              null      convtill_res              null              null              null              null              null
fld136_drn_lum_136_1              null fld136_drn_comm_136_1 fld136_drn_mgt_136_1     rc_strowres_g     up_down_slope              null              null      convtill_res         mw24_1000              null              null              null              null
fld137_drn_lum_137_1              null fld137_drn_comm_137_1 fld137_drn_mgt_137_1     rc_strowres_g     up_down_slope              null              null      convtill_res         mw24_1000              null              null              null              null
fld138_lum_138_1                  null fld138_comm_138_1  fld138_mgt_138_1     rc_strowres_g     up_down_slope              null              null      convtill_res              null              null              null              null              null
fld139_drn_lum_139_1              null fld139_drn_comm_139_1 fld139_drn_mgt_139_1     rc_strowres_g     up_down_slope              null              null      convtill_res         mw24_1000              null              null              null              null
fld13_lum_13_1                    null   fld13_comm_13_1    fld13_mgt_13_1     rc_strowres_g     up_down_slope              null              null      convtill_res              null              null              null              null              null
fld140_drn_lum_140_1              null fld140_drn_comm_140_1 fld140_drn_mgt_140_1     rc_strowres_g     up_down_slope              null              null      convtill_res         mw24_1000              null              null              null              null
fld141_drn_lum_141_1              null fld141_drn_comm_141_1 fld141_drn_mgt_141_1     rc_strowres_g     up_down_slope              null              null      convtill_res         mw24_1000              null              null              null              null
fld142_drn_lum_142_1              null fld142_drn_comm_142_1 fld142_drn_mgt_142_1     rc_strowres_g     up_down_slope              null              null      convtill_res         mw24_1000              null              null              null              null
fld143_drn_lum_143_1              null fld143_drn_comm_143_1 fld143_drn_mgt_143_1     rc_strowres_g     up_down_slope              null              null      convtill_res         mw24_1000              null              null              null              null
fld144_drn_lum_144_1              null fld144_drn_comm_144_1 fld144_drn_mgt_144_1     rc_strowres_g     up_down_slope              null              null      convtill_res         mw24_1000              null              null              null              null
fld145_drn_lum_145_1              null fld145_drn_comm_145_1 fld145_drn_mgt_145_1     rc_strowres_g     up_down_slope              null              null      convtill_res         mw24_1000              null              null              null              null