ls_unit.def: written by SWAT+ editor v2.1.0 on 2024-09-05 13:48 for SWAT+ rev.60.5.4
4278
      id              name          area  elem_tot  elements  
       1           rtu0001       0.43480         1         1  
       2           rtu0002       0.22127         1         2  
       3           rtu0003       1.86754         1         3  
       4           rtu0004       0.39393         1         4  
       5           rtu0005       0.50326         1         5  
       6           rtu0006       0.62560         1         6  
       7           rtu0007       0.17481         1         7  
       8           rtu0008       1.17289         1         8  
       9           rtu0009      14.25215         1         9  
      10           rtu0010       3.36068         1        10  
      11           rtu0011       1.23427         1        11  
      12           rtu0012       0.30626         1        12  
      13           rtu0013       0.25506         1        13  
      14           rtu0014       2.94779         1        14  
      15           rtu0015       5.53850         1        15  
      16           rtu0016       0.39379         1        16  
      17           rtu0017       2.13489         1        17  
      18           rtu0018       1.06065         1        18  
      19           rtu0019      10.23522         1        19  
      20           rtu0020       0.49911         1        20  
      21           rtu0021       0.20036         1        21  
      22           rtu0022       0.46554         1        22  
      23           rtu0023       0.51453         1        23  
      24           rtu0024       0.40544         1        24  
      25           rtu0025       0.17163         1        25  
      26           rtu0026       0.73509         1        26  
      27           rtu0027       8.44049         1        27  
      28           rtu0028       0.13439         1        28  
      29           rtu0029       0.63911         1        29  
      30           rtu0030       2.06104         1        30  
      31           rtu0031       0.17093         1        31  
      32           rtu0032       0.94542         1        32  
      33           rtu0033       0.19744         1        33  
      34           rtu0034       0.64442         1        34  
      35           rtu0035       0.86442         1        35  
      36           rtu0036       0.58053         1        36  
      37           rtu0037       0.32184         1        37  
      38           rtu0038       0.14041         1        38  
      39           rtu0039       6.38710         1        39  
      40           rtu0040       0.13162         1        40  
      41           rtu0041       0.39818         1        41  
      42           rtu0042       3.91695         1        42  
      43           rtu0043       0.33153         1        43  
      44           rtu0044       0.10562         1        44  
      45           rtu0045       0.26982         1        45  
      46           rtu0046       0.20007         1        46  
      47           rtu0047       5.00763         1        47  
      48           rtu0048       0.87406         1        48  
      49           rtu0049       1.24458         1        49  
      50           rtu0050       3.62853         1        50  
      51           rtu0051       0.41220         1        51  
      52           rtu0052       1.26070         1        52  
      53           rtu0053       1.04299         1        53  
      54           rtu0054       0.92956         1        54  
      55           rtu0055       0.35830         1        55  
      56           rtu0056       0.10751         1        56  
      57           rtu0057       0.36637         1        57  
      58           rtu0058       0.49618         1        58  
      59           rtu0059       5.93541         1        59  
      60           rtu0060       0.20891         1        60  
      61           rtu0061       0.79888         1        61  
      62           rtu0062       1.91625         1        62  
      63           rtu0063      28.80069         1        63  
      64           rtu0064       1.84600         1        64  
      65           rtu0065       3.06371         1        65  
      66           rtu0066       1.24394         1        66  
      67           rtu0067       0.20392         1        67  
      68           rtu0068       1.78180         1        68  
      69           rtu0069       0.98597         1        69  
      70           rtu0070       0.15684         1        70  
      71           rtu0071       4.61049         1        71  
      72           rtu0072       0.19052         1        72  
      73           rtu0073       1.26853         1        73  
      74           rtu0074       0.14104         1        74  
      75           rtu0075       0.42859         1        75  
      76           rtu0076       0.46875         1        76  
      77           rtu0077       1.41471         1        77  
      78           rtu0078       1.08777         1        78  
      79           rtu0079       0.22729         1        79  
      80           rtu0080       1.19173         1        80  
      81           rtu0081       0.10849         1        81  
      82           rtu0082       0.48832         1        82  
      83           rtu0083       0.79070         1        83  
      84           rtu0084       7.01122         1        84  
      85           rtu0085       0.49905         1        85  
      86           rtu0086       1.30973         1        86  
      87           rtu0087       0.47408         1        87  
      88           rtu0088       0.20331         1        88  
      89           rtu0089       0.23655         1        89  
      90           rtu0090       0.31345         1        90  
      91           rtu0091       6.39013         1        91  
      92           rtu0092       1.24036         1        92  
      93           rtu0093       0.43659         1        93  
      94           rtu0094       2.02444         1        94  
      95           rtu0095       0.45885         1        95  
      96           rtu0096       0.19351         1        96  
      97           rtu0097       0.95600         1        97  
      98           rtu0098       5.03265         1        98  
      99           rtu0099       0.52628         1        99  
     100           rtu0100       0.25181         1       100  
     101           rtu0101       1.36736         1       101  
     102           rtu0102       0.44724         1       102  
     103           rtu0103       1.17611         1       103  
     104           rtu0104       5.20962         1       104  
     105           rtu0105       0.79613         1       105  
     106           rtu0106       0.59652         1       106  
     107           rtu0107       0.23395         1       107  
     108           rtu0108       1.53611         1       108  
     109           rtu0109       1.16411         1       109  
     110           rtu0110       0.15081         1       110  
     111           rtu0111       2.45423         1       111  
     112           rtu0112       1.54402         1       112  
     113           rtu0113       1.29616         1       113  
     114           rtu0114       0.34469         1       114  
     115           rtu0115       2.39879         1       115  
     116           rtu0116       0.59105         1       116  
     117           rtu0117       0.24273         1       117  
     118           rtu0118       0.25406         1       118  
     119           rtu0119       0.23868         1       119  
     120           rtu0120       0.31447         1       120  
     121           rtu0121       1.46461         1       121  
     122           rtu0122       0.52058         1       122  
     123           rtu0123       0.65647         1       123  
     124           rtu0124       3.76488         1       124  
     125           rtu0125       0.61245         1       125  
     126           rtu0126       0.33995         1       126  
     127           rtu0127       0.47804         1       127  
     128           rtu0128       1.09617         1       128  
     129           rtu0129       0.16412         1       129  
     130           rtu0130       0.94447         1       130  
     131           rtu0131       0.30065         1       131  
     132           rtu0132       0.86848         1       132  
     133           rtu0133       0.37234         1       133  
     134           rtu0134       0.99464         1       134  
     135           rtu0135       1.49221         1       135  
     136           rtu0136       0.42349         1       136  
     137           rtu0137       0.31962         1       137  
     138           rtu0138       0.10815         1       138  
     139           rtu0139       1.31646         1       139  
     140           rtu0140       1.19014         1       140  
     141           rtu0141       0.12964         1       141  
     142           rtu0142       1.61753         1       142  
     143           rtu0143       0.12703         1       143  
     144           rtu0144       0.20135         1       144  
     145           rtu0145       0.16866         1       145  
     146           rtu0146       0.18830         1       146  
     147           rtu0147       0.57021         1       147  
     148           rtu0148       3.21054         1       148  
     149           rtu0149       0.59591         1       149  
     150           rtu0150       0.55771         1       150  
     151           rtu0151       0.10467         1       151  
     152           rtu0152       0.35317         1       152  
     153           rtu0153       0.35690         1       153  
     154           rtu0154       1.12540         1       154  
     155           rtu0155       2.31527         1       155  
     156           rtu0156       2.09006         1       156  
     157           rtu0157       0.57385         1       157  
     158           rtu0158       0.38064         1       158  
     159           rtu0159       1.38372         1       159  
     160           rtu0160       0.15786         1       160  
     161           rtu0161       4.62936         1       161  
     162           rtu0162       0.52241         1       162  
     163           rtu0163       0.28657         1       163  
     164           rtu0164       0.15112         1       164  
     165           rtu0165       1.29872         1       165  
     166           rtu0166       0.33377         1       166  
     167           rtu0167       3.51875         1       167  
     168           rtu0168       8.42492         1       168  
     169           rtu0169       0.25857         1       169  
     170           rtu0170       1.24488         1       170  
     171           rtu0171       0.45875         1       171  
     172           rtu0172       0.44270         1       172  
     173           rtu0173       0.90357         1       173  
     174           rtu0174       0.23824         1       174  
     175           rtu0175       2.05422         1       175  
     176           rtu0176       0.66149         1       176  
     177           rtu0177       0.35980         1       177  
     178           rtu0178       1.41958         1       178  
     179           rtu0179       0.17172         1       179  
     180           rtu0180       0.23303         1       180  
     181           rtu0181       0.87459         1       181  
     182           rtu0182       0.33719         1       182  
     183           rtu0183       0.10581         1       183  
     184           rtu0184       0.12336         1       184  
     185           rtu0185       0.56911         1       185  
     186           rtu0186       1.95098         1       186  
     187           rtu0187       0.17510         1       187  
     188           rtu0188       0.54058         1       188  
     189           rtu0189       6.16382         1       189  
     190           rtu0190       0.17579         1       190  
     191           rtu0191       0.74706         1       191  
     192           rtu0192       0.54592         1       192  
     193           rtu0193       0.32766         1       193  
     194           rtu0194       0.74150         1       194  
     195           rtu0195       0.31606         1       195  
     196           rtu0196       0.15531         1       196  
     197           rtu0197       0.71810         1       197  
     198           rtu0198       0.18019         1       198  
     199           rtu0199       4.77250         1       199  
     200           rtu0200       0.67060         1       200  
     201           rtu0201       0.10396         1       201  
     202           rtu0202       1.25985         1       202  
     203           rtu0203       1.34288         1       203  
     204           rtu0204       1.64676         1       204  
     205           rtu0205       1.96179         1       205  
     206           rtu0206       0.18217         1       206  
     207           rtu0207       0.27554         1       207  
     208           rtu0208       0.44208         1       208  
     209           rtu0209       0.11290         1       209  
     210           rtu0210       1.20593         1       210  
     211           rtu0211       0.40830         1       211  
     212           rtu0212       1.93792         1       212  
     213           rtu0213       0.21571         1       213  
     214           rtu0214       0.62668         1       214  
     215           rtu0215       0.28776         1       215  
     216           rtu0216       0.27368         1       216  
     217           rtu0217       5.60695         1       217  
     218           rtu0218       0.23072         1       218  
     219           rtu0219       0.48287         1       219  
     220           rtu0220       0.12139         1       220  
     221           rtu0221       0.44903         1       221  
     222           rtu0222       0.24545         1       222  
     223           rtu0223       0.29542         1       223  
     224           rtu0224       0.72666         1       224  
     225           rtu0225       0.76318         1       225  
     226           rtu0226       0.11035         1       226  
     227           rtu0227       0.82060         1       227  
     228           rtu0228       0.22702         1       228  
     229           rtu0229       0.10483         1       229  
     230           rtu0230       0.10439         1       230  
     231           rtu0231       0.50861         1       231  
     232           rtu0232       0.20901         1       232  
     233           rtu0233       0.15899         1       233  
     234           rtu0234       0.25114         1       234  
     235           rtu0235       0.28287         1       235  
     236           rtu0236       3.68215         1       236  
     237           rtu0237       0.32557         1       237  
     238           rtu0238       0.22634         1       238  
     239           rtu0239       0.28885         1       239  
     240           rtu0240       2.60695         1       240  
     241           rtu0241       0.31292         1       241  
     242           rtu0242       9.20207         1       242  
     243           rtu0243       6.68040         1       243  
     244           rtu0244       0.63798         1       244  
     245           rtu0245       0.17283         1       245  
     246           rtu0246       9.55224         1       246  
     247           rtu0247       3.17286         1       247  
     248           rtu0248       0.34888         1       248  
     249           rtu0249       0.10521         1       249  
     250           rtu0250       0.53781         1       250  
     251           rtu0251       0.56955         1       251  
     252           rtu0252       0.13909         1       252  
     253           rtu0253       1.73233         1       253  
     254           rtu0254       0.30524         1       254  
     255           rtu0255       0.25755         1       255  
     256           rtu0256       5.13883         1       256  
     257           rtu0257       3.01127         1       257  
     258           rtu0258       1.28212         1       258  
     259           rtu0259       1.11540         1       259  
     260           rtu0260       3.59083         1       260  
     261           rtu0261       0.15338         1       261  
     262           rtu0262       0.20483         1       262  
     263           rtu0263       0.25376         1       263  
     264           rtu0264       0.20308         1       264  
     265           rtu0265       0.14599         1       265  
     266           rtu0266       1.29677         1       266  
     267           rtu0267       1.11141         1       267  
     268           rtu0268       1.56167         1       268  
     269           rtu0269       0.72938         1       269  
     270           rtu0270       0.58216         1       270  
     271           rtu0271       0.97736         1       271  
     272           rtu0272       1.26005         1       272  
     273           rtu0273       1.09869         1       273  
     274           rtu0274       0.29619         1       274  
     275           rtu0275       0.17829         1       275  
     276           rtu0276       1.43465         1       276  
     277           rtu0277       0.10657         1       277  
     278           rtu0278       1.33576         1       278  
     279           rtu0279       0.70434         1       279  
     280           rtu0280       1.81029         1       280  
     281           rtu0281       1.36080         1       281  
     282           rtu0282       0.15710         1       282  
     283           rtu0283       0.52445         1       283  
     284           rtu0284       0.57579         1       284  
     285           rtu0285       1.48609         1       285  
     286           rtu0286       0.25681         1       286  
     287           rtu0287       3.57408         1       287  
     288           rtu0288       1.07275         1       288  
     289           rtu0289       0.18742         1       289  
     290           rtu0290       0.60491         1       290  
     291           rtu0291       0.83675         1       291  
     292           rtu0292       0.27582         1       292  
     293           rtu0293       0.64001         1       293  
     294           rtu0294       0.22484         1       294  
     295           rtu0295       0.50559         1       295  
     296           rtu0296       0.22474         1       296  
     297           rtu0297       0.19317         1       297  
     298           rtu0298       1.83203         1       298  
     299           rtu0299       0.35584         1       299  
     300           rtu0300       0.26463         1       300  
     301           rtu0301       0.13767         1       301  
     302           rtu0302       4.65284         1       302  
     303           rtu0303       0.18597         1       303  
     304           rtu0304       1.53872         1       304  
     305           rtu0305       0.21006         1       305  
     306           rtu0306       0.72241         1       306  
     307           rtu0307       0.56885         1       307  
     308           rtu0308       0.37064         1       308  
     309           rtu0309       1.47000         1       309  
     310           rtu0310       0.66876         1       310  
     311           rtu0311       0.33363         1       311  
     312           rtu0312       0.18585         1       312  
     313           rtu0313       0.30781         1       313  
     314           rtu0314       0.18416         1       314  
     315           rtu0315       1.38598         1       315  
     316           rtu0316       1.26454         1       316  
     317           rtu0317       0.15614         1       317  
     318           rtu0318       0.22271         1       318  
     319           rtu0319       2.05172         1       319  
     320           rtu0320       0.32202         1       320  
     321           rtu0321       0.10299         1       321  
     322           rtu0322       0.21932         1       322  
     323           rtu0323       0.92583         1       323  
     324           rtu0324       1.46338         1       324  
     325           rtu0325       1.38383         1       325  
     326           rtu0326       0.19487         1       326  
     327           rtu0327       1.70904         1       327  
     328           rtu0328       1.07860         1       328  
     329           rtu0329       0.10904         1       329  
     330           rtu0330       0.24329         1       330  
     331           rtu0331       0.28089         1       331  
     332           rtu0332       0.55837         1       332  
     333           rtu0333       0.24014         1       333  
     334           rtu0334       2.21403         1       334  
     335           rtu0335       0.23192         1       335  
     336           rtu0336       0.30332         1       336  
     337           rtu0337       1.76298         1       337  
     338           rtu0338       0.59507         1       338  
     339           rtu0339       0.20847         1       339  
     340           rtu0340       0.14134         1       340  
     341           rtu0341       0.47054         1       341  
     342           rtu0342       0.15717         1       342  
     343           rtu0343       0.64232         1       343  
     344           rtu0344       0.12094         1       344  
     345           rtu0345       1.11322         1       345  
     346           rtu0346       0.12341         1       346  
     347           rtu0347       2.03716         1       347  
     348           rtu0348       1.36913         1       348  
     349           rtu0349       0.17066         1       349  
     350           rtu0350       0.40008         1       350  
     351           rtu0351       0.19582         1       351  
     352           rtu0352       1.79895         1       352  
     353           rtu0353       0.45375         1       353  
     354           rtu0354       0.54408         1       354  
     355           rtu0355       0.45145         1       355  
     356           rtu0356       0.21193         1       356  
     357           rtu0357       0.35638         1       357  
     358           rtu0358       0.44401         1       358  
     359           rtu0359       4.06945         1       359  
     360           rtu0360       0.53396         1       360  
     361           rtu0361       8.36901         1       361  
     362           rtu0362       3.83457         1       362  
     363           rtu0363       0.18395         1       363  
     364           rtu0364       1.91805         1       364  
     365           rtu0365       0.10702         1       365  
     366           rtu0366       0.16230         1       366  
     367           rtu0367       1.34664         1       367  
     368           rtu0368       4.74004         1       368  
     369           rtu0369       0.36847         1       369  
     370           rtu0370       0.25730         1       370  
     371           rtu0371       4.55679         1       371  
     372           rtu0372       0.34148         1       372  
     373           rtu0373       0.11646         1       373  
     374           rtu0374       0.19709         1       374  
     375           rtu0375       0.15185         1       375  
     376           rtu0376       0.12218         1       376  
     377           rtu0377       0.47182         1       377  
     378           rtu0378       2.15901         1       378  
     379           rtu0379       0.17168         1       379  
     380           rtu0380       0.61977         1       380  
     381           rtu0381       0.36454         1       381  
     382           rtu0382       0.10617         1       382  
     383           rtu0383       0.44499         1       383  
     384           rtu0384       0.37844         1       384  
     385           rtu0385       0.32229         1       385  
     386           rtu0386       2.40548         1       386  
     387           rtu0387       1.34627         1       387  
     388           rtu0388       0.26333         1       388  
     389           rtu0389       0.24864         1       389  
     390           rtu0390       0.10374         1       390  
     391           rtu0391       0.59305         1       391  
     392           rtu0392       2.73065         1       392  
     393           rtu0393       1.96587         1       393  
     394           rtu0394       0.25216         1       394  
     395           rtu0395       1.27307         1       395  
     396           rtu0396       2.16166         1       396  
     397           rtu0397       0.46874         1       397  
     398           rtu0398       2.74803         1       398  
     399           rtu0399       0.15060         1       399  
     400           rtu0400       0.88272         1       400  
     401           rtu0401       0.64074         1       401  
     402           rtu0402       1.32729         1       402  
     403           rtu0403       0.28144         1       403  
     404           rtu0404       0.30678         1       404  
     405           rtu0405       1.96030         1       405  
     406           rtu0406       0.26426         1       406  
     407           rtu0407       0.15201         1       407  
     408           rtu0408       8.06974         1       408  
     409           rtu0409       0.27410         1       409  
     410           rtu0410       0.89187         1       410  
     411           rtu0411       4.27062         1       411  
     412           rtu0412       0.47943         1       412  
     413           rtu0413       2.21316         1       413  
     414           rtu0414       0.39537         1       414  
     415           rtu0415       0.19245         1       415  
     416           rtu0416       1.08117         1       416  
     417           rtu0417       1.89988         1       417  
     418           rtu0418       0.23331         1       418  
     419           rtu0419       0.17291         1       419  
     420           rtu0420       1.06937         1       420  
     421           rtu0421       2.19455         1       421  
     422           rtu0422       0.31400         1       422  
     423           rtu0423       0.89813         1       423  
     424           rtu0424       1.42791         1       424  
     425           rtu0425       1.38646         1       425  
     426           rtu0426       0.20869         1       426  
     427           rtu0427       1.17124         1       427  
     428           rtu0428       0.15699         1       428  
     429           rtu0429       8.13256         1       429  
     430           rtu0430       0.50500         1       430  
     431           rtu0431       0.19166         1       431  
     432           rtu0432       1.41069         1       432  
     433           rtu0433       3.81483         1       433  
     434           rtu0434       3.70656         1       434  
     435           rtu0435       7.80601         1       435  
     436           rtu0436       0.11518         1       436  
     437           rtu0437       0.18753         1       437  
     438           rtu0438       4.27400         1       438  
     439           rtu0439       0.42538         1       439  
     440           rtu0440       0.46608         1       440  
     441           rtu0441       0.10086         1       441  
     442           rtu0442       0.40241         1       442  
     443           rtu0443       2.13278         1       443  
     444           rtu0444       0.45744         1       444  
     445           rtu0445       0.24996         1       445  
     446           rtu0446       0.43129         1       446  
     447           rtu0447       2.68682         1       447  
     448           rtu0448       0.10880         1       448  
     449           rtu0449       0.68727         1       449  
     450           rtu0450       1.01645         1       450  
     451           rtu0451       0.74515         1       451  
     452           rtu0452       0.26955         1       452  
     453           rtu0453       2.59217         1       453  
     454           rtu0454       2.34145         1       454  
     455           rtu0455       0.67126         1       455  
     456           rtu0456       0.15506         1       456  
     457           rtu0457       0.13723         1       457  
     458           rtu0458       0.82771         1       458  
     459           rtu0459       1.52298         1       459  
     460           rtu0460       0.14252         1       460  
     461           rtu0461       0.49949         1       461  
     462           rtu0462       1.87957         1       462  
     463           rtu0463       0.60728         1       463  
     464           rtu0464       0.40034         1       464  
     465           rtu0465       1.16557         1       465  
     466           rtu0466       0.10215         1       466  
     467           rtu0467       0.15378         1       467  
     468           rtu0468       0.99341         1       468  
     469           rtu0469       0.27723         1       469  
     470           rtu0470       0.42349         1       470  
     471           rtu0471       0.50850         1       471  
     472           rtu0472       0.57580         1       472  
     473           rtu0473       0.27464         1       473  