ls_unit.ele: written by SWAT+ editor v2.1.0 on 2024-09-05 13:48 for SWAT+ rev.60.5.4
      id  name                   obj_typ  obj_typ_no      bsn_frac      sub_frac      reg_frac  
       1  hru0001                    hru           1     2.4890E-5       1.00000       0.00000  
       2  hru0002                    hru           2     1.2667E-5       1.00000       0.00000  
       3  hru0003                    hru           3     1.0691E-4       1.00000       0.00000  
       4  hru0004                    hru           4     2.2550E-5       1.00000       0.00000  
       5  hru0005                    hru           5     2.8809E-5       1.00000       0.00000  
       6  hru0006                    hru           6     3.5812E-5       1.00000       0.00000  
       7  hru0007                    hru           7     1.0007E-5       1.00000       0.00000  
       8  hru0008                    hru           8     6.7142E-5       1.00000       0.00000  
       9  hru0009                    hru           9     8.1586E-4       1.00000       0.00000  
      10  hru0010                    hru          10     1.9238E-4       1.00000       0.00000  
      11  hru0011                    hru          11     7.0655E-5       1.00000       0.00000  
      12  hru0012                    hru          12     1.7532E-5       1.00000       0.00000  
      13  hru0013                    hru          13     1.4601E-5       1.00000       0.00000  
      14  hru0014                    hru          14     1.6875E-4       1.00000       0.00000  
      15  hru0015                    hru          15     3.1705E-4       1.00000       0.00000  
      16  hru0016                    hru          16     2.2543E-5       1.00000       0.00000  
      17  hru0017                    hru          17     1.2221E-4       1.00000       0.00000  
      18  hru0018                    hru          18     6.0717E-5       1.00000       0.00000  
      19  hru0019                    hru          19     5.8591E-4       1.00000       0.00000  
      20  hru0020                    hru          20     2.8572E-5       1.00000       0.00000  
      21  hru0021                    hru          21     1.1470E-5       1.00000       0.00000  
      22  hru0022                    hru          22     2.6650E-5       1.00000       0.00000  
      23  hru0023                    hru          23     2.9454E-5       1.00000       0.00000  
      24  hru0024                    hru          24     2.3209E-5       1.00000       0.00000  
      25  hru0025                    hru          25     9.8248E-6       1.00000       0.00000  
      26  hru0026                    hru          26     4.2080E-5       1.00000       0.00000  
      27  hru0027                    hru          27     4.8317E-4       1.00000       0.00000  
      28  hru0028                    hru          28     7.6930E-6       1.00000       0.00000  
      29  hru0029                    hru          29     3.6586E-5       1.00000       0.00000  
      30  hru0030                    hru          30     1.1798E-4       1.00000       0.00000  
      31  hru0031                    hru          31     9.7846E-6       1.00000       0.00000  
      32  hru0032                    hru          32     5.4120E-5       1.00000       0.00000  
      33  hru0033                    hru          33     1.1302E-5       1.00000       0.00000  
      34  hru0034                    hru          34     3.6890E-5       1.00000       0.00000  
      35  hru0035                    hru          35     4.9483E-5       1.00000       0.00000  
      36  hru0036                    hru          36     3.3232E-5       1.00000       0.00000  
      37  hru0037                    hru          37     1.8423E-5       1.00000       0.00000  
      38  hru0038                    hru          38     8.0375E-6       1.00000       0.00000  
      39  hru0039                    hru          39     3.6563E-4       1.00000       0.00000  
      40  hru0040                    hru          40     7.5346E-6       1.00000       0.00000  
      41  hru0041                    hru          41     2.2794E-5       1.00000       0.00000  
      42  hru0042                    hru          42     2.2422E-4       1.00000       0.00000  
      43  hru0043                    hru          43     1.8978E-5       1.00000       0.00000  
      44  hru0044                    hru          44     6.0462E-6       1.00000       0.00000  
      45  hru0045                    hru          45     1.5446E-5       1.00000       0.00000  
      46  hru0046                    hru          46     1.1453E-5       1.00000       0.00000  
      47  hru0047                    hru          47     2.8666E-4       1.00000       0.00000  
      48  hru0048                    hru          48     5.0036E-5       1.00000       0.00000  
      49  hru0049                    hru          49     7.1246E-5       1.00000       0.00000  
      50  hru0050                    hru          50     2.0771E-4       1.00000       0.00000  
      51  hru0051                    hru          51     2.3596E-5       1.00000       0.00000  
      52  hru0052                    hru          52     7.2169E-5       1.00000       0.00000  
      53  hru0053                    hru          53     5.9706E-5       1.00000       0.00000  
      54  hru0054                    hru          54     5.3212E-5       1.00000       0.00000  
      55  hru0055                    hru          55     2.0511E-5       1.00000       0.00000  
      56  hru0056                    hru          56     6.1545E-6       1.00000       0.00000  
      57  hru0057                    hru          57     2.0973E-5       1.00000       0.00000  
      58  hru0058                    hru          58     2.8403E-5       1.00000       0.00000  
      59  hru0059                    hru          59     3.3977E-4       1.00000       0.00000  
      60  hru0060                    hru          60     1.1959E-5       1.00000       0.00000  
      61  hru0061                    hru          61     4.5732E-5       1.00000       0.00000  
      62  hru0062                    hru          62     1.0970E-4       1.00000       0.00000  
      63  hru0063                    hru          63     1.6487E-3       1.00000       0.00000  
      64  hru0064                    hru          64     1.0567E-4       1.00000       0.00000  
      65  hru0065                    hru          65     1.7538E-4       1.00000       0.00000  
      66  hru0066                    hru          66     7.1209E-5       1.00000       0.00000  
      67  hru0067                    hru          67     1.1673E-5       1.00000       0.00000  
      68  hru0068                    hru          68     1.0200E-4       1.00000       0.00000  
      69  hru0069                    hru          69     5.6441E-5       1.00000       0.00000  
      70  hru0070                    hru          70     8.9780E-6       1.00000       0.00000  
      71  hru0071                    hru          71     2.6393E-4       1.00000       0.00000  
      72  hru0072                    hru          72     1.0906E-5       1.00000       0.00000  
      73  hru0073                    hru          73     7.2617E-5       1.00000       0.00000  
      74  hru0074                    hru          74     8.0737E-6       1.00000       0.00000  
      75  hru0075                    hru          75     2.4534E-5       1.00000       0.00000  
      76  hru0076                    hru          76     2.6834E-5       1.00000       0.00000  
      77  hru0077                    hru          77     8.0985E-5       1.00000       0.00000  
      78  hru0078                    hru          78     6.2269E-5       1.00000       0.00000  
      79  hru0079                    hru          79     1.3011E-5       1.00000       0.00000  
      80  hru0080                    hru          80     6.8221E-5       1.00000       0.00000  
      81  hru0081                    hru          81     6.2104E-6       1.00000       0.00000  
      82  hru0082                    hru          82     2.7954E-5       1.00000       0.00000  
      83  hru0083                    hru          83     4.5263E-5       1.00000       0.00000  
      84  hru0084                    hru          84     4.0136E-4       1.00000       0.00000  
      85  hru0085                    hru          85     2.8568E-5       1.00000       0.00000  
      86  hru0086                    hru          86     7.4975E-5       1.00000       0.00000  
      87  hru0087                    hru          87     2.7138E-5       1.00000       0.00000  
      88  hru0088                    hru          88     1.1639E-5       1.00000       0.00000  
      89  hru0089                    hru          89     1.3541E-5       1.00000       0.00000  
      90  hru0090                    hru          90     1.7943E-5       1.00000       0.00000  
      91  hru0091                    hru          91     3.6580E-4       1.00000       0.00000  
      92  hru0092                    hru          92     7.1004E-5       1.00000       0.00000  
      93  hru0093                    hru          93     2.4992E-5       1.00000       0.00000  
      94  hru0094                    hru          94     1.1589E-4       1.00000       0.00000  
      95  hru0095                    hru          95     2.6267E-5       1.00000       0.00000  
      96  hru0096                    hru          96     1.1078E-5       1.00000       0.00000  
      97  hru0097                    hru          97     5.4726E-5       1.00000       0.00000  
      98  hru0098                    hru          98     2.8809E-4       1.00000       0.00000  
      99  hru0099                    hru          99     3.0127E-5       1.00000       0.00000  
     100  hru0100                    hru         100     1.4415E-5       1.00000       0.00000  
     101  hru0101                    hru         101     7.8274E-5       1.00000       0.00000  
     102  hru0102                    hru         102     2.5602E-5       1.00000       0.00000  
     103  hru0103                    hru         103     6.7326E-5       1.00000       0.00000  
     104  hru0104                    hru         104     2.9822E-4       1.00000       0.00000  
     105  hru0105                    hru         105     4.5574E-5       1.00000       0.00000  
     106  hru0106                    hru         106     3.4148E-5       1.00000       0.00000  
     107  hru0107                    hru         107     1.3393E-5       1.00000       0.00000  
     108  hru0108                    hru         108     8.7934E-5       1.00000       0.00000  
     109  hru0109                    hru         109     6.6639E-5       1.00000       0.00000  
     110  hru0110                    hru         110     8.6333E-6       1.00000       0.00000  
     111  hru0111                    hru         111     1.4049E-4       1.00000       0.00000  
     112  hru0112                    hru         112     8.8387E-5       1.00000       0.00000  
     113  hru0113                    hru         113     7.4199E-5       1.00000       0.00000  
     114  hru0114                    hru         114     1.9732E-5       1.00000       0.00000  
     115  hru0115                    hru         115     1.3732E-4       1.00000       0.00000  
     116  hru0116                    hru         116     3.3834E-5       1.00000       0.00000  
     117  hru0117                    hru         117     1.3895E-5       1.00000       0.00000  
     118  hru0118                    hru         118     1.4544E-5       1.00000       0.00000  
     119  hru0119                    hru         119     1.3663E-5       1.00000       0.00000  
     120  hru0120                    hru         120     1.8002E-5       1.00000       0.00000  
     121  hru0121                    hru         121     8.3842E-5       1.00000       0.00000  
     122  hru0122                    hru         122     2.9801E-5       1.00000       0.00000  
     123  hru0123                    hru         123     3.7580E-5       1.00000       0.00000  
     124  hru0124                    hru         124     2.1552E-4       1.00000       0.00000  
     125  hru0125                    hru         125     3.5060E-5       1.00000       0.00000  
     126  hru0126                    hru         126     1.9460E-5       1.00000       0.00000  
     127  hru0127                    hru         127     2.7365E-5       1.00000       0.00000  
     128  hru0128                    hru         128     6.2750E-5       1.00000       0.00000  
     129  hru0129                    hru         129     9.3948E-6       1.00000       0.00000  
     130  hru0130                    hru         130     5.4066E-5       1.00000       0.00000  
     131  hru0131                    hru         131     1.7211E-5       1.00000       0.00000  
     132  hru0132                    hru         132     4.9716E-5       1.00000       0.00000  
     133  hru0133                    hru         133     2.1315E-5       1.00000       0.00000  
     134  hru0134                    hru         134     5.6938E-5       1.00000       0.00000  
     135  hru0135                    hru         135     8.5421E-5       1.00000       0.00000  
     136  hru0136                    hru         136     2.4242E-5       1.00000       0.00000  
     137  hru0137                    hru         137     1.8296E-5       1.00000       0.00000  
     138  hru0138                    hru         138     6.1911E-6       1.00000       0.00000  
     139  hru0139                    hru         139     7.5360E-5       1.00000       0.00000  
     140  hru0140                    hru         140     6.8129E-5       1.00000       0.00000  
     141  hru0141                    hru         141     7.4215E-6       1.00000       0.00000  
     142  hru0142                    hru         142     9.2595E-5       1.00000       0.00000  
     143  hru0143                    hru         143     7.2717E-6       1.00000       0.00000  
     144  hru0144                    hru         144     1.1526E-5       1.00000       0.00000  
     145  hru0145                    hru         145     9.6552E-6       1.00000       0.00000  
     146  hru0146                    hru         146     1.0779E-5       1.00000       0.00000  
     147  hru0147                    hru         147     3.2641E-5       1.00000       0.00000  
     148  hru0148                    hru         148     1.8379E-4       1.00000       0.00000  
     149  hru0149                    hru         149     3.4113E-5       1.00000       0.00000  
     150  hru0150                    hru         150     3.1926E-5       1.00000       0.00000  
     151  hru0151                    hru         151     5.9916E-6       1.00000       0.00000  
     152  hru0152                    hru         152     2.0217E-5       1.00000       0.00000  
     153  hru0153                    hru         153     2.0431E-5       1.00000       0.00000  
     154  hru0154                    hru         154     6.4424E-5       1.00000       0.00000  
     155  hru0155                    hru         155     1.3254E-4       1.00000       0.00000  
     156  hru0156                    hru         156     1.1965E-4       1.00000       0.00000  
     157  hru0157                    hru         157     3.2850E-5       1.00000       0.00000  
     158  hru0158                    hru         158     2.1790E-5       1.00000       0.00000  
     159  hru0159                    hru         159     7.9211E-5       1.00000       0.00000  
     160  hru0160                    hru         160     9.0367E-6       1.00000       0.00000  
     161  hru0161                    hru         161     2.6501E-4       1.00000       0.00000  
     162  hru0162                    hru         162     2.9905E-5       1.00000       0.00000  
     163  hru0163                    hru         163     1.6405E-5       1.00000       0.00000  
     164  hru0164                    hru         164     8.6511E-6       1.00000       0.00000  
     165  hru0165                    hru         165     7.4345E-5       1.00000       0.00000  
     166  hru0166                    hru         166     1.9107E-5       1.00000       0.00000  
     167  hru0167                    hru         167     2.0143E-4       1.00000       0.00000  
     168  hru0168                    hru         168     4.8228E-4       1.00000       0.00000  
     169  hru0169                    hru         169     1.4802E-5       1.00000       0.00000  
     170  hru0170                    hru         170     7.1263E-5       1.00000       0.00000  
     171  hru0171                    hru         171     2.6261E-5       1.00000       0.00000  
     172  hru0172                    hru         172     2.5342E-5       1.00000       0.00000  
     173  hru0173                    hru         173     5.1725E-5       1.00000       0.00000  
     174  hru0174                    hru         174     1.3638E-5       1.00000       0.00000  
     175  hru0175                    hru         175     1.1759E-4       1.00000       0.00000  
     176  hru0176                    hru         176     3.7867E-5       1.00000       0.00000  
     177  hru0177                    hru         177     2.0597E-5       1.00000       0.00000  
     178  hru0178                    hru         178     8.1264E-5       1.00000       0.00000  
     179  hru0179                    hru         179     9.8303E-6       1.00000       0.00000  
     180  hru0180                    hru         180     1.3340E-5       1.00000       0.00000  
     181  hru0181                    hru         181     5.0066E-5       1.00000       0.00000  
     182  hru0182                    hru         182     1.9302E-5       1.00000       0.00000  
     183  hru0183                    hru         183     6.0570E-6       1.00000       0.00000  
     184  hru0184                    hru         184     7.0619E-6       1.00000       0.00000  
     185  hru0185                    hru         185     3.2579E-5       1.00000       0.00000  
     186  hru0186                    hru         186     1.1168E-4       1.00000       0.00000  
     187  hru0187                    hru         187     1.0023E-5       1.00000       0.00000  
     188  hru0188                    hru         188     3.0945E-5       1.00000       0.00000  
     189  hru0189                    hru         189     3.5285E-4       1.00000       0.00000  
     190  hru0190                    hru         190     1.0063E-5       1.00000       0.00000  
     191  hru0191                    hru         191     4.2765E-5       1.00000       0.00000  
     192  hru0192                    hru         192     3.1251E-5       1.00000       0.00000  
     193  hru0193                    hru         193     1.8757E-5       1.00000       0.00000  
     194  hru0194                    hru         194     4.2447E-5       1.00000       0.00000  
     195  hru0195                    hru         195     1.8093E-5       1.00000       0.00000  
     196  hru0196                    hru         196     8.8909E-6       1.00000       0.00000  
     197  hru0197                    hru         197     4.1108E-5       1.00000       0.00000  
     198  hru0198                    hru         198     1.0315E-5       1.00000       0.00000  
     199  hru0199                    hru         199     2.7320E-4       1.00000       0.00000  
     200  hru0200                    hru         200     3.8388E-5       1.00000       0.00000  
     201  hru0201                    hru         201     5.9514E-6       1.00000       0.00000  
     202  hru0202                    hru         202     7.2120E-5       1.00000       0.00000  
     203  hru0203                    hru         203     7.6873E-5       1.00000       0.00000  
     204  hru0204                    hru         204     9.4268E-5       1.00000       0.00000  
     205  hru0205                    hru         205     1.1230E-4       1.00000       0.00000  
     206  hru0206                    hru         206     1.0428E-5       1.00000       0.00000  
     207  hru0207                    hru         207     1.5773E-5       1.00000       0.00000  
     208  hru0208                    hru         208     2.5307E-5       1.00000       0.00000  
     209  hru0209                    hru         209     6.4629E-6       1.00000       0.00000  
     210  hru0210                    hru         210     6.9033E-5       1.00000       0.00000  
     211  hru0211                    hru         211     2.3373E-5       1.00000       0.00000  
     212  hru0212                    hru         212     1.1094E-4       1.00000       0.00000  
     213  hru0213                    hru         213     1.2348E-5       1.00000       0.00000  
     214  hru0214                    hru         214     3.5874E-5       1.00000       0.00000  
     215  hru0215                    hru         215     1.6473E-5       1.00000       0.00000  
     216  hru0216                    hru         216     1.5667E-5       1.00000       0.00000  
     217  hru0217                    hru         217     3.2097E-4       1.00000       0.00000  
     218  hru0218                    hru         218     1.3207E-5       1.00000       0.00000  
     219  hru0219                    hru         219     2.7642E-5       1.00000       0.00000  
     220  hru0220                    hru         220     6.9490E-6       1.00000       0.00000  
     221  hru0221                    hru         221     2.5705E-5       1.00000       0.00000  
     222  hru0222                    hru         222     1.4051E-5       1.00000       0.00000  
     223  hru0223                    hru         223     1.6911E-5       1.00000       0.00000  
     224  hru0224                    hru         224     4.1597E-5       1.00000       0.00000  
     225  hru0225                    hru         225     4.3688E-5       1.00000       0.00000  
     226  hru0226                    hru         226     6.3170E-6       1.00000       0.00000  
     227  hru0227                    hru         227     4.6975E-5       1.00000       0.00000  
     228  hru0228                    hru         228     1.2996E-5       1.00000       0.00000  
     229  hru0229                    hru         229     6.0010E-6       1.00000       0.00000  
     230  hru0230                    hru         230     5.9760E-6       1.00000       0.00000  
     231  hru0231                    hru         231     2.9115E-5       1.00000       0.00000  
     232  hru0232                    hru         232     1.1965E-5       1.00000       0.00000  
     233  hru0233                    hru         233     9.1015E-6       1.00000       0.00000  
     234  hru0234                    hru         234     1.4376E-5       1.00000       0.00000  
     235  hru0235                    hru         235     1.6193E-5       1.00000       0.00000  
     236  hru0236                    hru         236     2.1078E-4       1.00000       0.00000  
     237  hru0237                    hru         237     1.8637E-5       1.00000       0.00000  
     238  hru0238                    hru         238     1.2957E-5       1.00000       0.00000  
     239  hru0239                    hru         239     1.6535E-5       1.00000       0.00000  
     240  hru0240                    hru         240     1.4923E-4       1.00000       0.00000  
     241  hru0241                    hru         241     1.7913E-5       1.00000       0.00000  
     242  hru0242                    hru         242     5.2677E-4       1.00000       0.00000  
     243  hru0243                    hru         243     3.8242E-4       1.00000       0.00000  
     244  hru0244                    hru         244     3.6521E-5       1.00000       0.00000  
     245  hru0245                    hru         245     9.8939E-6       1.00000       0.00000  
     246  hru0246                    hru         246     5.4682E-4       1.00000       0.00000  
     247  hru0247                    hru         247     1.8163E-4       1.00000       0.00000  
     248  hru0248                    hru         248     1.9972E-5       1.00000       0.00000  
     249  hru0249                    hru         249     6.0229E-6       1.00000       0.00000  
     250  hru0250                    hru         250     3.0787E-5       1.00000       0.00000  
     251  hru0251                    hru         251     3.2604E-5       1.00000       0.00000  
     252  hru0252                    hru         252     7.9621E-6       1.00000       0.00000  
     253  hru0253                    hru         253     9.9167E-5       1.00000       0.00000  
     254  hru0254                    hru         254     1.7474E-5       1.00000       0.00000  
     255  hru0255                    hru         255     1.4743E-5       1.00000       0.00000  
     256  hru0256                    hru         256     2.9417E-4       1.00000       0.00000  
     257  hru0257                    hru         257     1.7238E-4       1.00000       0.00000  
     258  hru0258                    hru         258     7.3394E-5       1.00000       0.00000  
     259  hru0259                    hru         259     6.3851E-5       1.00000       0.00000  
     260  hru0260                    hru         260     2.0556E-4       1.00000       0.00000  
     261  hru0261                    hru         261     8.7804E-6       1.00000       0.00000  
     262  hru0262                    hru         262     1.1725E-5       1.00000       0.00000  
     263  hru0263                    hru         263     1.4527E-5       1.00000       0.00000  
     264  hru0264                    hru         264     1.1626E-5       1.00000       0.00000  
     265  hru0265                    hru         265     8.3570E-6       1.00000       0.00000  
     266  hru0266                    hru         266     7.4233E-5       1.00000       0.00000  
     267  hru0267                    hru         267     6.3623E-5       1.00000       0.00000  
     268  hru0268                    hru         268     8.9397E-5       1.00000       0.00000  
     269  hru0269                    hru         269     4.1753E-5       1.00000       0.00000  
     270  hru0270                    hru         270     3.3326E-5       1.00000       0.00000  
     271  hru0271                    hru         271     5.5949E-5       1.00000       0.00000  
     272  hru0272                    hru         272     7.2131E-5       1.00000       0.00000  
     273  hru0273                    hru         273     6.2894E-5       1.00000       0.00000  
     274  hru0274                    hru         274     1.6955E-5       1.00000       0.00000  
     275  hru0275                    hru         275     1.0206E-5       1.00000       0.00000  
     276  hru0276                    hru         276     8.2126E-5       1.00000       0.00000  
     277  hru0277                    hru         277     6.1004E-6       1.00000       0.00000  
     278  hru0278                    hru         278     7.6465E-5       1.00000       0.00000  
     279  hru0279                    hru         279     4.0320E-5       1.00000       0.00000  
     280  hru0280                    hru         280     1.0363E-4       1.00000       0.00000  
     281  hru0281                    hru         281     7.7898E-5       1.00000       0.00000  
     282  hru0282                    hru         282     8.9932E-6       1.00000       0.00000  
     283  hru0283                    hru         283     3.0022E-5       1.00000       0.00000  
     284  hru0284                    hru         284     3.2961E-5       1.00000       0.00000  
     285  hru0285                    hru         285     8.5071E-5       1.00000       0.00000  
     286  hru0286                    hru         286     1.4701E-5       1.00000       0.00000  
     287  hru0287                    hru         287     2.0460E-4       1.00000       0.00000  
     288  hru0288                    hru         288     6.1409E-5       1.00000       0.00000  
     289  hru0289                    hru         289     1.0729E-5       1.00000       0.00000  
     290  hru0290                    hru         290     3.4628E-5       1.00000       0.00000  
     291  hru0291                    hru         291     4.7900E-5       1.00000       0.00000  
     292  hru0292                    hru         292     1.5789E-5       1.00000       0.00000  
     293  hru0293                    hru         293     3.6637E-5       1.00000       0.00000  
     294  hru0294                    hru         294     1.2871E-5       1.00000       0.00000  
     295  hru0295                    hru         295     2.8942E-5       1.00000       0.00000  
     296  hru0296                    hru         296     1.2865E-5       1.00000       0.00000  
     297  hru0297                    hru         297     1.1058E-5       1.00000       0.00000  
     298  hru0298                    hru         298     1.0487E-4       1.00000       0.00000  
     299  hru0299                    hru         299     2.0370E-5       1.00000       0.00000  
     300  hru0300                    hru         300     1.5148E-5       1.00000       0.00000  
     301  hru0301                    hru         301     7.8811E-6       1.00000       0.00000  
     302  hru0302                    hru         302     2.6635E-4       1.00000       0.00000  
     303  hru0303                    hru         303     1.0646E-5       1.00000       0.00000  
     304  hru0304                    hru         304     8.8084E-5       1.00000       0.00000  
     305  hru0305                    hru         305     1.2025E-5       1.00000       0.00000  
     306  hru0306                    hru         306     4.1354E-5       1.00000       0.00000  
     307  hru0307                    hru         307     3.2564E-5       1.00000       0.00000  