object.cnt: written by SWAT+ editor v2.1.0 on 2024-09-05 13:47 for SWAT+ rev.60.5.4
name                   ls_area      tot_area       obj       hru      lhru       rtu       mfl       aqu       cha       res       rec      exco       dlr       can       pmp       out      lcha     aqu2d       hrd       wro  
dotnuvele_100      17468.84312   17468.84312      9603      4278         0      4278         0         1         0       255         0         8         0         0         0         0       783         0         0         0  
