plant.ini: written by SWAT+ editor v2.1.0 on 2024-09-05 13:48 for SWAT+ rev.60.5.4 and edited with SWATfarmR 2.0.5 on 2024-09-11 08:12:00.138945
pcom_name          plt_cnt  rot_yr_ini          plt_name     lc_status      lai_init       bm_init      phu_init      plnt_pop      yrs_init      rsd_init  
barr_comm                1           1
                                                    berm             y             1          1000             0             0             1          1000
barr_pond_12_comm        1           1
                                                    berm             y             1          1000             0             0             1          1000
barr_pond_46_comm        1           1
                                                    berm             y             1          1000             0             0             1          1000
barr_pond_62_comm        1           1
                                                    berm             y             1          1000             0             0             1          1000
barr_pond_79_comm        1           1
                                                    berm             y             1          1000             0             0             1          1000
bros_comm                1           1
                                                    bros             y             1          5000             1             0             0             0
bros_pond_69_drn_comm       1           1
                                                    bros             y             1          5000             1             0             0             0
fld1003_drn_comm_1003_1       4           1
                                                    wwht             y             1          1000             0             0             1          1000
                                                    cana             n             0             0             0             0             0             0
                                                    barl             n             0             0             0             0             0             0
                                                    peas             n             0             0             0             0             0             0
fld100_drn_comm_100_1       5           1
                                                    wwht             y             1          1000             0             0             1          1000
                                                    barl             n             0             0             0             0             0             0
                                                    cana             n             0             0             0             0             0             0
                                                    sgbt             n             0             0             0             0             0             0
                                                    peas             n             0             0             0             0             0             0
fld1016_drn_comm_1016_1       4           1
                                                    wwht             y             1          1000             0             0             1          1000
                                                    cana             n             0             0             0             0             0             0
                                                    barl             n             0             0             0             0             0             0
                                                    swht             n             0             0             0             0             0             0
fld1019_drn_comm_1019_1       4           1
                                                    wwht             y             1          1000             0             0             1          1000
                                                    cana             n             0             0             0             0             0             0
                                                    barl             n             0             0             0             0             0             0
                                                    swht             n             0             0             0             0             0             0
fld1022_drn_comm_1022_1       2           1
                                                    wwht             y             1          1000             0             0             1          1000
                                                    cana             n             0             0             0             0             0             0
fld1023_comm_1023_1       3           1
                                                    cana             y             1          1000             0             0             1          1000
                                                    wwht             n             0             0             0             0             0             0
                                                    barl             n             0             0             0             0             0             0
fld1026_drn_comm_1026_1       3           1
                                                    wwht             y             1          1000             0             0             1          1000
                                                    grbn             n             0             0             0             0             0             0
                                                    crrt             n             0             0             0             0             0             0
fld1028_drn_comm_1028_1       6           1
                                                    cana             y             1          1000             0             0             1          1000
                                                    wwht             n             0             0             0             0             0             0
                                                    crrt             n             0             0             0             0             0             0
                                                    pota             n             0             0             0             0             0             0
                                                    scan             n             0             0             0             0             0             0
                                                    swht             n             0             0             0             0             0             0
fld1029_buffer_56_drn_comm_4273_1       5           1
                                                    cana             y             1          1000             0             0             1          1000
                                                    wwht             n             0             0             0             0             0             0
                                                    crrt             n             0             0             0             0             0             0
                                                    pota             n             0             0             0             0             0             0
                                                    scan             n             0             0             0             0             0             0
fld1029_drn_comm_1029_1       5           1
                                                    cana             y             1          1000             0             0             1          1000
                                                    wwht             n             0             0             0             0             0             0
                                                    crrt             n             0             0             0             0             0             0
                                                    pota             n             0             0             0             0             0             0
                                                    scan             n             0             0             0             0             0             0
fld102_drn_comm_102_1       5           1
                                                    wwht             y             1          1000             0             0             1          1000
                                                    peas             n             0             0             0             0             0             0
                                                    clvr             n             0             0             0             0             0             0
                                                    vtch             n             0             0             0             0             0             0
                                                    alfa             n             0             0             0             0             0             0
fld1032_drn_comm_1032_1       3           1
                                                    wwht             y             1          1000             0             0             1          1000
                                                    cana             n             0             0             0             0             0             0
                                                    sgbt             n             0             0             0             0             0             0
fld1041_comm_1041_1       3           1
                                                    wwht             y             1          1000             0             0             1          1000
                                                    swht             n             0             0             0             0             0             0
                                                    cana             n             0             0             0             0             0             0
fld1041_pond_150_comm_4223_1       3           1
                                                    wwht             y             1          1000             0             0             1          1000
                                                    swht             n             0             0             0             0             0             0
                                                    cana             n             0             0             0             0             0             0
fld1049_drn_comm_1049_1       5           1
                                                    wwht             y             1          1000             0             0             1          1000
                                                    strc             n             0             0             0             0             0             0
                                                    peas             n             0             0             0             0             0             0
                                                    oats             n             0             0             0             0             0             0
                                                    swht             n             0             0             0             0             0             0
fld1050_comm_1050_1       4           1
                                                    wwht             y             1          1000             0             0             1          1000
                                                    cana             n             0             0             0             0             0             0
                                                    clvr             n             0             0             0             0             0             0
                                                    swht             n             0             0             0             0             0             0
fld1050_pond_57_comm_4100_1       4           1
                                                    wwht             y             1          1000             0             0             1          1000
                                                    cana             n             0             0             0             0             0             0
                                                    clvr             n             0             0             0             0             0             0
                                                    swht             n             0             0             0             0             0             0
fld108_drn_comm_108_1       3           1
                                                    cana             y             1          1000             0             0             1          1000
                                                    wwht             n             0             0             0             0             0             0
                                                    swht             n             0             0             0             0             0             0
fld124_drn_comm_124_1       4           1
                                                    cana             y             1          1000             0             0             1          1000
                                                    swht             n             0             0             0             0             0             0
                                                    clvr             n             0             0             0             0             0             0
                                                    barl             n             0             0             0             0             0             0
fld126_drn_comm_126_1       5           1
                                                    cana             y             1          1000             0             0             1          1000
                                                    clvr             n             0             0             0             0             0             0
                                                    wwht             n             0             0             0             0             0             0
                                                    peas             n             0             0             0             0             0             0
                                                    swht             n             0             0             0             0             0             0
fld134_drn_comm_134_1       5           1
                                                    wwht             y             1          1000             0             0             1          1000
                                                    grbn             n             0             0             0             0             0             0
                                                    cana             n             0             0             0             0             0             0
                                                    sgbt             n             0             0             0             0             0             0
                                                    peas             n             0             0             0             0             0             0
fld135_comm_135_1        5           1
                                                    wwht             y             1          1000             0             0             1          1000
                                                    grbn             n             0             0             0             0             0             0
                                                    cana             n             0             0             0             0             0             0
                                                    sgbt             n             0             0             0             0             0             0
                                                    peas             n             0             0             0             0             0             0
fld136_drn_comm_136_1       4           1
                                                    cana             y             1          1000             0             0             1          1000
                                                    wwht             n             0             0             0             0             0             0
                                                    barl             n             0             0             0             0             0             0
                                                    alfa             n             0             0             0             0             0             0
fld139_drn_comm_139_1       3           1
                                                    wwht             y             1          1000             0             0             1          1000
                                                    wpas             n             0             0             0             0             0             0
                                                    barl             n             0             0             0             0             0             0
fld140_drn_comm_140_1       5           1
                                                    wwht             y             1          1000             0             0             1          1000
                                                    grbn             n             0             0             0             0             0             0
                                                    swht             n             0             0             0             0             0             0
                                                    sgbt             n             0             0             0             0             0             0
                                                    peas             n             0             0             0             0             0             0
fld142_drn_comm_142_1       7           1
                                                    cana             y             1          1000             0             0             1          1000
                                                    pota             n             0             0             0             0             0             0
                                                    barl             n             0             0             0             0             0             0
                                                    wwht             n             0             0             0             0             0             0
                                                    peas             n             0             0             0             0             0             0
                                                    crrt             n             0             0             0             0             0             0
                                                    wpas             n             0             0             0             0             0             0
fld143_drn_comm_143_1       4           1
                                                    wwht             y             1          1000             0             0             1          1000
                                                    grbn             n             0             0             0             0             0             0
                                                    peas             n             0             0             0             0             0             0
                                                    sgbt             n             0             0             0             0             0             0
fld146_drn_comm_146_1       4           1
                                                    wwht             y             1          1000             0             0             1          1000
                                                    barl             n             0             0             0             0             0             0
                                                    wpas             n             0             0             0             0             0             0
                                                    cana             n             0             0             0             0             0             0
fld149_drn_comm_149_1       3           1
                                                    cana             y             1          1000             0             0             1          1000
                                                    grbn             n             0             0             0             0             0             0
                                                    wwht             n             0             0             0             0             0             0
fld1519_drn_comm_1519_1       6           1
                                                    cana             y             1          1000             0             0             1          1000
                                                    wwht             n             0             0             0             0             0             0
                                                    wpas             n             0             0             0             0             0             0
                                                    grbn             n             0             0             0             0             0             0
                                                    sgbt             n             0             0             0             0             0             0
                                                    lmix             n             0             0             0             0             0             0
fld151_drn_comm_151_1       4           1
                                                    wwht             y             1          1000             0             0             1          1000
                                                    clvr             n             0             0             0             0             0             0
                                                    grbn             n             0             0             0             0             0             0
                                                    swht             n             0             0             0             0             0             0
fld1523_comm_1523_1       4           1
                                                    cana             y             1          1000             0             0             1          1000
                                                    wwht             n             0             0             0             0             0             0
                                                    wtrc             n             0             0             0             0             0             0
                                                    barl             n             0             0             0             0             0             0
fld1530_drn_comm_1530_1       5           1
                                                    wwht             y             1          1000             0             0             1          1000
                                                    cana             n             0             0             0             0             0             0
                                                    wpas             n             0             0             0             0             0             0
                                                    wtrc             n             0             0             0             0             0             0
                                                    crrt             n             0             0             0             0             0             0
fld153_drn_comm_153_1       4           1
                                                    cana             y             1          1000             0             0             1          1000
                                                    wwht             n             0             0             0             0             0             0
                                                    grbn             n             0             0             0             0             0             0
                                                    sgbt             n             0             0             0             0             0             0
fld1542_comm_1542_1       6           1
                                                    wwht             y             1          1000             0             0             1          1000
                                                    corn             n             0             0             0             0             0             0
                                                    wpas             n             0             0             0             0             0             0
                                                    oats             n             0             0             0             0             0             0
                                                    clvr             n             0             0             0             0             0             0
                                                    grbn             n             0             0             0             0             0             0
fld1543_drn_comm_1543_1       6           1
                                                    wwht             y             1          1000             0             0             1          1000
                                                    wpas             n             0             0             0             0             0             0
                                                    barl             n             0             0             0             0             0             0
                                                    oats             n             0             0             0             0             0             0
                                                    alfa             n             0             0             0             0             0             0
                                                    strc             n             0             0             0             0             0             0
fld1544_drn_comm_1544_1       5           1
                                                    wwht             y             1          1000             0             0             1          1000
                                                    wpas             n             0             0             0             0             0             0
                                                    wbar             n             0             0             0             0             0             0
                                                    clvr             n             0             0             0             0             0             0
                                                    swht             n             0             0             0             0             0             0
fld1545_drn_comm_1545_1       4           1
                                                    wwht             y             1          1000             0             0             1          1000
                                                    swht             n             0             0             0             0             0             0
                                                    corn             n             0             0             0             0             0             0
                                                    wpas             n             0             0             0             0             0             0
fld155_buffer_7_comm_4224_1       6           1
                                                    wwht             y             1          1000             0             0             1          1000
                                                    grbn             n             0             0             0             0             0             0
                                                    swht             n             0             0             0             0             0             0
                                                    wpas             n             0             0             0             0             0             0
                                                    barl             n             0             0             0             0             0             0
                                                    peas             n             0             0             0             0             0             0
fld155_comm_155_1        6           1
                                                    wwht             y             1          1000             0             0             1          1000