reservoir.con: written by SWAT+ editor v2.1.0 on 2024-09-05 13:47 for SWAT+ rev.60.5.4
      id  name                gis_id          area           lat           lon          elev       res               wst       cst      ovfl      rule   out_tot       obj_typ    obj_id       hyd_typ          frac  
       1  res001                   0       0.15163      55.30005      23.97235      45.07229         1            D16141         0         0         0         0  
       2  res002                   0       0.13218      55.30120      23.97368      44.83416         2            D16141         0         0         0         0  
       3  res003                   0       3.67681      55.30151      23.97950      30.20504         3            D16141         0         0         0         1           sdc       732           tot       1.00000  
       4  res004                   0       0.10195      55.31208      23.95961      49.09976         4            D16141         0         0         0         0  
       5  res005                   0       0.18364      55.31227      23.96700      46.51915         5            D16141         0         0         0         0  
       6  res006                   0       0.39827      55.31302      23.96840      45.33448         6            D16141         0         0         0         0  
       7  res007                   0       0.16588      55.31734      23.97684      46.85784         7            D16139         0         0         0         0  
       8  res008                   0       0.20276      55.32049      23.96796      46.30736         8            D16139         0         0         0         0  
       9  res009                   0       0.11194      55.32273      23.96310      44.09768         9            D16139         0         0         0         0  
      10  res010                   0       0.11390      55.32608      23.97098      47.27359        10            D16139         0         0         0         0  
      11  res011                   0       0.81314      55.32894      23.93129      51.71753        11            D16141         0         0         0         0  
      12  res012                   0       0.86316      55.33146      23.94917      42.30982        12            D16139         0         0         0         1           sdc       392           tot       1.00000  
      13  res013                   0       1.31062      55.33485      23.95820      44.62320        13            D16139         0         0         0         1           sdc       604           tot       1.00000  
      14  res014                   0       0.36005      55.34079      23.92678      47.73126        14            D20739         0         0         0         1           sdc       402           tot       1.00000  
      15  res015                   0       0.19237      55.35845      23.92331      56.38979        15            D20739         0         0         0         0  
      16  res016                   0       0.17777      55.35918      23.92561      57.16903        16            D20739         0         0         0         0  
      17  res017                   0       1.01597      55.36489      23.89238      54.96227        17            D15046         0         0         0         1           sdc       294           tot       1.00000  
      18  res018                   0       3.98210      55.36964      23.89166      56.63698        18            D15046         0         0         0         1           sdc       698           tot       1.00000  
      19  res019                   0       0.14002      55.38398      23.86611      60.03549        19            D15046         0         0         0         0  
      20  res020                   0       1.64314      55.38368      23.88506      67.81435        20            D15046         0         0         0         0  
      21  res021                   0       0.24101      55.38523      23.88376      67.81453        21            D15046         0         0         0         0  
      22  res022                   0       0.36553      55.38603      23.88447      67.81466        22            D15046         0         0         0         0  
      23  res023                   0       0.44561      55.38682      23.88533      67.87261        23            D15046         0         0         0         0  
      24  res024                   0       3.20587      55.38779      23.88569      67.81432        24            D15046         0         0         0         0  
      25  res025                   0       0.61130      55.38905      23.84181      69.11395        25     s55400n23867e         0         0         0         0  
      26  res026                   0       0.41536      55.39350      23.84730      65.56936        26     s55400n23867e         0         0         0         1           sdc       697           tot       1.00000  
      27  res027                   0       0.43577      55.39446      23.84902      65.26873        27     s55400n23867e         0         0         0         1           sdc        60           tot       1.00000  
      28  res028                   0       1.14286      55.39509      23.85584      66.38862        28     s55400n23867e         0         0         0         1           sdc       642           tot       1.00000  
      29  res029                   0      35.58028      55.40879      23.84509      67.26337        29     s55400n23867e         0         0         0         1           sdc       509           tot       1.00000  
      30  res030                   0       0.15120      55.42372      23.82686      74.05465        30             D2802         0         0         0         0  
      31  res031                   0       0.42589      55.44808      23.81504      83.59442        31             D2802         0         0         0         0  
      32  res032                   0       0.10033      55.45367      23.71801     101.63158        32            D15040         0         0         0         0  
      33  res033                   0       6.63520      55.46423      23.74144      93.58539        33            D15040         0         0         0         1           sdc       375           tot       1.00000  
      34  res034                   0       2.21754      55.46989      23.78833      79.65034        34            D15040         0         0         0         1           sdc       665           tot       1.00000  
      35  res035                   0      10.00403      55.47581      23.76931      87.63294        35            D15040         0         0         0         1           sdc       247           tot       1.00000  
      36  res036                   0       1.38688      55.48387      23.78589      82.51296        36            D15040         0         0         0         1           sdc       574           tot       1.00000  
      37  res037                   0      75.62450      55.47056      23.79814      79.68655        37            D15040         0         0         0         1           sdc       657           tot       1.00000  
      38  res038                   0       0.10609      55.50037      23.78599      79.66664        38            D15040         0         0         0         1           sdc        19           tot       1.00000  
      39  res039                   0       0.10620      55.50360      23.78416      79.89978        39            D15040         0         0         0         0  
      40  res040                   0       0.12427      55.50391      23.77217      91.07459        40            D15040         0         0         0         0  
      41  res041                   0       0.15279      55.51007      23.76878      92.09144        41            D15040         0         0         0         0  
      42  res042                   0       0.23611      55.51606      23.79959      87.02551        42            D15040         0         0         0         0  
      43  res043                   0       1.44586      55.51615      23.76036      90.73577        43            D15036         0         0         0         1           sdc       596           tot       1.00000  
      44  res044                   0       0.10961      55.51726      23.71283     106.41902        44            D15036         0         0         0         0  
      45  res045                   0       0.30933      55.51724      23.75823      90.74099        45            D15036         0         0         0         1           sdc       674           tot       1.00000  
      46  res046                   0       0.13928      55.52234      23.79144      91.12719        46            D15036         0         0         0         0  
      47  res047                   0       0.11752      55.52432      23.80142      86.28167        47            D15036         0         0         0         0  
      48  res048                   0       0.38444      55.52510      23.80349      85.38061        48            D15036         0         0         0         1           sdc       196           tot       1.00000  
      49  res049                   0       0.12730      55.53281      23.70444     102.65188        49            D15036         0         0         0         0  
      50  res050                   0       0.39756      55.53548      23.78921      91.09960        50            D15036         0         0         0         0  
      51  res051                   0       0.15571      55.53629      23.74401      93.91741        51            D15036         0         0         0         0  
      52  res052                   0       1.91576      55.54215      23.75620      91.15028        52            D15036         0         0         0         1           sdc       670           tot       1.00000  
      53  res053                   0       0.20052      55.54355      23.70951     107.92164        53            D15036         0         0         0         0  
      54  res054                   0       0.14346      55.54466      23.70506     109.82023        54            D15030         0         0         0         0  
      55  res055                   0       0.12281      55.57250      23.75259      93.14385        55            D15030         0         0         0         0  
      56  res056                   0       0.13483      55.57346      23.75919      91.24208        56            D15030         0         0         0         0  
      57  res057                   0       0.28768      55.59294      23.75650      94.61139        57            D15030         0         0         0         1           sdc       334           tot       1.00000  
      58  res058                   0       0.38177      55.60635      23.75412      95.45762        58            D15030         0         0         0         0  
      59  res059                   0       0.52127      55.60655      23.75286      95.45964        59            D15030         0         0         0         0  
      60  res060                   0       1.10855      55.47988      23.72772      98.19968        60            D15040         0         0         0         0  
      61  res061                   0       0.08386      55.60502      23.74707      98.82349        61            D15030         0         0         0         1           sdc       495           tot       1.00000  
      62  res062                   0       0.08816      55.31130      23.96935      43.92748        62            D16141         0         0         0         1           sdc       393           tot       1.00000  
      63  res063                   0       0.06719      55.29906      23.98176      29.11899        63            D16141         0         0         0         1           sdc        83           tot       1.00000  
      64  res064                   0       0.02445      55.33126      23.95702      40.16396        64            D16139         0         0         0         1           sdc       506           tot       1.00000  
      65  res065                   0       0.04640      55.33736      23.95870      45.34647        65            D16139         0         0         0         1           sdc       553           tot       1.00000  
      66  res066                   0       0.03879      55.36565      23.89252      55.27530        66            D15046         0         0         0         1           sdc       735           tot       1.00000  
      67  res067                   0       0.05721      55.50261      23.77445      89.82144        67            D15040         0         0         0         1           sdc       457           tot       1.00000  
      68  res068                   0       0.08111      55.50305      23.78415      79.64579        68            D15040         0         0         0         1           sdc       749           tot       1.00000  
      69  res069                   0       0.02191      55.50333      23.78259      80.65300        69            D15040         0         0         0         1           sdc       143           tot       1.00000  
      70  res070                   0       0.03543      55.54909      23.76848      87.57185        70            D15036         0         0         0         1           sdc       671           tot       1.00000  
      71  res071                   0       0.06999      55.62058      23.74500      98.89023        71            D15030         0         0         0         0  
      72  res072                   0       0.02554      55.62345      23.75095      97.56130        72            D15030         0         0         0         0  
      73  res073                   0       0.04386      55.62151      23.75357      99.08914        73            D15030         0         0         0         0  
      74  res074                   0       0.02618      55.59410      23.75731      95.07549        74            D15030         0         0         0         0  
      75  res075                   0       0.06182      55.59132      23.75934      93.04001        75            D15030         0         0         0         0  
      76  res076                   0       0.01705      55.59101      23.75933      93.05105        76            D15030         0         0         0         0  
      77  res077                   0       0.04103      55.59196      23.75132      96.45649        77            D15030         0         0         0         0  
      78  res078                   0       0.04136      55.59175      23.75133      96.76671        78            D15030         0         0         0         0  
      79  res079                   0       0.06223      55.59157      23.75136      96.67541        79            D15030         0         0         0         0  
      80  res080                   0       0.04122      55.59067      23.75113      97.47567        80            D15030         0         0         0         0  
      81  res081                   0       0.02476      55.59205      23.74463      97.29020        81            D15030         0         0         0         0  
      82  res082                   0       0.02557      55.61971      23.73144     105.71135        82            D15030         0         0         0         0  
      83  res083                   0       0.08080      55.60784      23.72873     106.70196        83            D15030         0         0         0         0  
      84  res084                   0       0.01682      55.61033      23.73135     102.77160        84            D15030         0         0         0         0  
      85  res085                   0       0.02121      55.58321      23.74484      99.62769        85            D15030         0         0         0         0  
      86  res086                   0       0.01916      55.58077      23.75434      95.81910        86            D15030         0         0         0         0  
      87  res087                   0       0.03741      55.57193      23.75512      92.99364        87            D15030         0         0         0         0  
      88  res088                   0       0.05461      55.57463      23.75432      97.13708        88            D15030         0         0         0         0  
      89  res089                   0       0.05475      55.57510      23.75883      93.52667        89            D15030         0         0         0         0  
      90  res090                   0       0.08761      55.57281      23.75958      91.20139        90            D15030         0         0         0         0  
      91  res091                   0       0.05623      55.56311      23.75048      95.10828        91            D15030         0         0         0         0  
      92  res092                   0       0.06180      55.56366      23.74839      95.40491        92            D15030         0         0         0         0  
      93  res093                   0       0.07985      55.56441      23.75554      95.18416        93            D15030         0         0         0         0  
      94  res094                   0       0.02326      55.56193      23.76936      94.41954        94            D15036         0         0         0         0  
      95  res095                   0       0.02729      55.55960      23.76862      94.18408        95            D15036         0         0         0         0  
      96  res096                   0       0.08129      55.55719      23.76384      88.54462        96            D15036         0         0         0         1           sdc       479           tot       1.00000  
      97  res097                   0       0.05973      55.55684      23.76984      94.60382        97            D15036         0         0         0         0  
      98  res098                   0       0.03630      55.54894      23.76869      87.55923        98            D15036         0         0         0         1           sdc        15           tot       1.00000  
      99  res099                   0       0.03056      55.54201      23.75844      95.06117        99            D15036         0         0         0         0  
     100  res100                   0       0.03894      55.53858      23.74971      92.93577       100            D15036         0         0         0         0  
     101  res101                   0       0.07238      55.53572      23.78647      92.29497       101            D15036         0         0         0         0  
     102  res102                   0       0.04370      55.52401      23.80179      85.55791       102            D15036         0         0         0         0  
     103  res103                   0       0.04452      55.52082      23.79177      90.99837       103            D15036         0         0         0         0  
     104  res104                   0       0.03070      55.52637      23.79336      91.69575       104            D15036         0         0         0         0  
     105  res105                   0       0.01950      55.51648      23.76835      83.40950       105            D15036         0         0         0         0  
     106  res106                   0       0.05764      55.51516      23.77090      81.02685       106            D15036         0         0         0         0  
     107  res107                   0       0.02848      55.51367      23.76865      89.25443       107            D15036         0         0         0         0  
     108  res108                   0       0.02876      55.51279      23.76903      92.29566       108            D15036         0         0         0         0  
     109  res109                   0       0.06402      55.51089      23.76924      91.96327       109            D15036         0         0         0         0  
     110  res110                   0       0.05993      55.51718      23.75225      97.97887       110            D15036         0         0         0         0  
     111  res111                   0       0.02157      55.50419      23.77374      91.47716       111            D15040         0         0         0         0  
     112  res112                   0       0.02222      55.50192      23.78232      86.32473       112            D15040         0         0         0         0  
     113  res113                   0       0.08765      55.49635      23.79420      87.91122       113            D15040         0         0         0         0  
     114  res114                   0       0.03860      55.47798      23.77341      87.72306       114            D15040         0         0         0         0  
     115  res115                   0       0.02077      55.46264      23.74495      94.05702       115            D15040         0         0         0         0  
     116  res116                   0       0.03090      55.45825      23.74704      93.11168       116            D15040         0         0         0         0  
     117  res117                   0       0.02812      55.45694      23.74309      98.26778       117            D15040         0         0         0         0  
     118  res118                   0       0.02233      55.45570      23.74317      96.21519       118            D15040         0         0         0         0  
     119  res119                   0       0.04365      55.45878      23.73866      95.62912       119            D15040         0         0         0         0  
     120  res120                   0       0.04714      55.47580      23.74237      99.65558       120            D15040         0         0         0         0  
     121  res121                   0       0.02864      55.48538      23.73963      98.01555       121            D15040         0         0         0         0  
     122  res122                   0       0.03834      55.49488      23.71962     103.73809       122            D15036         0         0         0         0  
     123  res123                   0       0.03765      55.49659      23.71654     105.72175       123            D15036         0         0         0         0  
     124  res124                   0       0.03181      55.49416      23.77167      90.98133       124            D15040         0         0         0         0  
     125  res125                   0       0.01835      55.49394      23.77114      91.47345       125            D15040         0         0         0         0  
     126  res126                   0       0.04732      55.49661      23.76772      92.45026       126            D15040         0         0         0         0  
     127  res127                   0       0.01933      55.49742      23.76204      97.10389       127            D15040         0         0         0         0  
     128  res128                   0       0.06252      55.49797      23.76066      96.59349       128            D15040         0         0         0         0  
     129  res129                   0       0.06236      55.49641      23.75940      95.50815       129            D15040         0         0         0         0  
     130  res130                   0       0.01685      55.48940      23.75744      94.68754       130            D15040         0         0         0         0  
     131  res131                   0       0.05407      55.52232      23.71670     106.07867       131            D15036         0         0         0         0  
     132  res132                   0       0.03094      55.52702      23.71510     100.56068       132            D15036         0         0         0         0  
     133  res133                   0       0.02529      55.52695      23.71478     100.56063       133            D15036         0         0         0         0  
     134  res134                   0       0.03822      55.53441      23.72953     100.35409       134            D15036         0         0         0         0  
     135  res135                   0       0.04986      55.53445      23.72161     102.18472       135            D15036         0         0         0         0  
     136  res136                   0       0.02112      55.53474      23.70446     102.83688       136            D15036         0         0         0         0  
     137  res137                   0       0.02808      55.54058      23.69912     109.04768       137            D15036         0         0         0         0  
     138  res138                   0       0.01879      55.54073      23.70041     108.13598       138            D15036         0         0         0         0  
     139  res139                   0       0.03736      55.53914      23.68906     108.30836       139            D15030         0         0         0         0  
     140  res140                   0       0.02388      55.54417      23.69100     109.66270       140            D15030         0         0         0         0  
     141  res141                   0       0.02169      55.55085      23.72062     104.04400       141            D15030         0         0         0         0  
     142  res142                   0       0.01860      55.55213      23.67194     114.52596       142            D15030         0         0         0         0  
     143  res143                   0       0.02911      55.56245      23.67213     114.85626       143            D15030         0         0         0         0  
     144  res144                   0       0.04027      55.56345      23.67302     113.13411       144            D15030         0         0         0         0  
     145  res145                   0       0.02092      55.57491      23.66406     120.73952       145            D15030         0         0         0         0  
     146  res146                   0       0.03205      55.57958      23.70685     106.97118       146            D15030         0         0         0         0  
     147  res147                   0       0.02113      55.57988      23.71473     106.72968       147            D15030         0         0         0         0  
     148  res148                   0       0.08122      55.58061      23.71833     105.01684       148            D15030         0         0         0         0  
     149  res149                   0       0.05117      55.45091      23.79006      83.97225       149            D15040         0         0         0         0  
     150  res150                   0       0.06484      55.45570      23.80196      85.27704       150            D15040         0         0         0         0  
     151  res151                   0       0.02245      55.45854      23.81174      82.84370       151            D15040         0         0         0         0  
     152  res152                   0       0.05186      55.44695      23.81414      80.75185       152             D2802         0         0         0         0  
     153  res153                   0       0.05239      55.44487      23.81703      83.18025       153             D2802         0         0         0         0  
     154  res154                   0       0.02238      55.44254      23.81829      80.39438       154             D2802         0         0         0         0  
     155  res155                   0       0.01562      55.43897      23.82201      76.69010       155             D2802         0         0         0         0  
     156  res156                   0       0.10297      55.44331      23.82142      80.78268       156             D2802         0         0         0         0  
     157  res157                   0       0.02025      55.42154      23.81417      79.03585       157             D2802         0         0         0         0  
     158  res158                   0       0.06715      55.42283      23.82829      70.06488       158             D2802         0         0         0         0  
     159  res159                   0       0.05018      55.42670      23.82895      67.71904       159             D2802         0         0         0         0  
     160  res160                   0       0.03660      55.43187      23.82473      67.93611       160             D2802         0         0         0         1           sdc       413           tot       1.00000  
     161  res161                   0       0.01608      55.41005      23.80201      79.54124       161             D2802         0         0         0         0  
     162  res162                   0       0.03787      55.40898      23.81828      77.45048       162     s55400n23867e         0         0         0         0  
     163  res163                   0       0.02650      55.40728      23.82171      75.08120       163     s55400n23867e         0         0         0         0  
     164  res164                   0       0.04668      55.40273      23.82109      75.27757       164     s55400n23867e         0         0         0         0  
     165  res165                   0       0.02564      55.39958      23.82911      73.30423       165     s55400n23867e         0         0         0         0  
     166  res166                   0       0.02814      55.39900      23.83042      72.65418       166     s55400n23867e         0         0         0         0  
     167  res167                   0       0.01894      55.40405      23.84325      73.71844       167     s55400n23867e         0         0         0         0  
     168  res168                   0       0.03949      55.40418      23.84427      73.36978       168     s55400n23867e         0         0         0         0  
     169  res169                   0       0.02941      55.40337      23.84440      73.67285       169     s55400n23867e         0         0         0         0  
     170  res170                   0       0.01667      55.39874      23.84465      71.56864       170     s55400n23867e         0         0         0         0  
     171  res171                   0       0.02235      55.41765      23.83832      74.61695       171             D2802         0         0         0         0  