rout_unit.con: written by SWAT+ editor v2.1.0 on 2024-09-05 13:47 for SWAT+ rev.60.5.4
      id  name                gis_id          area           lat           lon          elev       rtu               wst       cst      ovfl      rule   out_tot       obj_typ    obj_id       hyd_typ          frac  
       1  rtu0001                  0       0.43480      55.30621      23.97824      44.99918         1            D16141         0         0         0         2            ru      1937           tot       1.00000           aqu         1           rhg       1.00000  
       2  rtu0002                  0       0.22127      55.31055      23.97546      42.41298         2            D16141         0         0         0         3            ru      1382           tot       0.70423            ru      2609           tot       0.29577           aqu         1           rhg       1.00000  
       3  rtu0003                  0       1.86754      55.31464      23.97229      42.39174         3            D16139         0         0         0         2            ru      4061           tot       1.00000           aqu         1           rhg       1.00000  
       4  rtu0004                  0       0.39393      55.31600      23.97398      45.81902         4            D16139         0         0         0         2            ru      3150           tot       1.00000           aqu         1           rhg       1.00000  
       5  rtu0005                  0       0.50326      55.32278      23.97052      47.11912         5            D16139         0         0         0         2            ru      1986           tot       1.00000           aqu         1           rhg       1.00000  
       6  rtu0006                  0       0.62560      55.32272      23.95256      48.50065         6            D16141         0         0         0         2            ru      4059           tot       1.00000           aqu         1           rhg       1.00000  
       7  rtu0007                  0       0.17481      55.32372      23.95515      49.09863         7            D16139         0         0         0         2            ru      2258           tot       1.00000           aqu         1           rhg       1.00000  
       8  rtu0008                  0       1.17289      55.32434      23.97192      47.63952         8            D16139         0         0         0         4           sdc        80           tot       0.27273            ru      3131           tot       0.53409            ru      3150           tot       0.19318           aqu         1           rhg       1.00000  
       9  rtu0009                  0      14.25215      55.32253      23.93302      51.27663         9            D16141         0         0         0         2           sdc       645           til       1.00000           aqu         1           rhg       1.00000  
      10  rtu0010                  0       3.36068      55.32647      23.96073      43.35248        10            D16139         0         0         0         3            ru      1668           tot       0.57962            ru      3105           tot       0.42038           aqu         1           rhg       1.00000  
      11  rtu0011                  0       1.23427      55.32707      23.97030      47.49043        11            D16139         0         0         0         5           res        10           tot       0.13333           sdc        80           tot       0.31667            ru      2539           tot       0.22500            ru      3150           tot       0.32500           aqu         1           rhg       1.00000  
      12  rtu0012                  0       0.30626      55.32845      23.96984      47.59631        12            D16139         0         0         0         3            ru      2541           tot       0.32500            ru      3150           tot       0.67500           aqu         1           rhg       1.00000  
      13  rtu0013                  0       0.25506      55.32841      23.96798      46.54472        13            D16139         0         0         0         2            ru      2011           tot       1.00000           aqu         1           rhg       1.00000  
      14  rtu0014                  0       2.94779      55.32743      23.94606      50.62586        14            D16139         0         0         0         2            ru      2004           tot       1.00000           aqu         1           rhg       1.00000  
      15  rtu0015                  0       5.53850      55.32896      23.95932      44.61187        15            D16139         0         0         0         3            ru      1392           tot       0.42125            ru      4060           tot       0.57875           aqu         1           rhg       1.00000  
      16  rtu0016                  0       0.39379      55.33071      23.93887      50.20210        16            D16139         0         0         0         4           sdc       388           sur       1.00000           sdc       388           lat       1.00000           sdc       388           til       1.00000           aqu         1           rhg       1.00000  
      17  rtu0017                  0       2.13489      55.33001      23.96358      44.73544        17            D16139         0         0         0         2            ru      1393           tot       1.00000           aqu         1           rhg       1.00000  
      18  rtu0018                  0       1.06065      55.33361      23.95984      46.27352        18            D16139         0         0         0         4           sdc       604           tot       0.15455            ru      1066           tot       0.33636            ru      1672           tot       0.50909           aqu         1           rhg       1.00000  
      19  rtu0019                  0      10.23522      55.33172      23.96749      46.55108        19            D16139         0         0         0         2           sdc       117           tot       1.00000           aqu         1           rhg       1.00000  
      20  rtu0020                  0       0.49911      55.33524      23.94705      50.77799        20            D16139         0         0         0         2            ru      2624           tot       1.00000           aqu         1           rhg       1.00000  
      21  rtu0021                  0       0.20036      55.33660      23.94837      51.16375        21            D16139         0         0         0         2           sdc        79           tot       1.00000           aqu         1           rhg       1.00000  
      22  rtu0022                  0       0.46554      55.33701      23.94593      51.38019        22            D16139         0         0         0         3           sdc       151           tot       0.71053            ru      3161           tot       0.28947           aqu         1           rhg       1.00000  
      23  rtu0023                  0       0.51453      55.33808      23.95112      50.80672        23            D16139         0         0         0         2           sdc       121           tot       1.00000           aqu         1           rhg       1.00000  
      24  rtu0024                  0       0.40544      55.33966      23.95019      51.40819        24            D16139         0         0         0         3            ru      1416           tot       0.40000            ru      1682           tot       0.60000           aqu         1           rhg       1.00000  
      25  rtu0025                  0       0.17163      55.34053      23.92506      53.29254        25            D15046         0         0         0         4            ru      3176           sur       1.00000            ru      3176           lat       1.00000           sdc       609           til       1.00000           aqu         1           rhg       1.00000  
      26  rtu0026                  0       0.73509      55.34064      23.93635      50.49871        26            D20739         0         0         0         3            ru      1073           tot       0.27053            ru      3173           tot       0.72947           aqu         1           rhg       1.00000  
      27  rtu0027                  0       8.44049      55.33807      23.96920      46.60728        27            D16139         0         0         0         4            ru      2632           tot       0.16180            ru      3170           tot       0.45407            ru      4065           tot       0.38413           aqu         1           rhg       1.00000  
      28  rtu0028                  0       0.13439      55.34353      23.91351      55.92231        28            D15046         0         0         0         4            ru      2642           sur       1.00000            ru      2642           lat       1.00000           sdc       609           til       1.00000           aqu         1           rhg       1.00000  
      29  rtu0029                  0       0.63911      55.34363      23.92038      53.51280        29            D15046         0         0         0         3           res       200           tot       0.35385            ru      3181           tot       0.64615           aqu         1           rhg       1.00000  
      30  rtu0030                  0       2.06104      55.34638      23.91149      55.30361        30            D15046         0         0         0         2            ru      1699           tot       1.00000           aqu         1           rhg       1.00000  
      31  rtu0031                  0       0.17093      55.35029      23.90947      55.64249        31            D15046         0         0         0         4            ru      1706           sur       1.00000            ru      1706           lat       1.00000           sdc       283           til       1.00000           aqu         1           rhg       1.00000  
      32  rtu0032                  0       0.94542      55.35022      23.90493      56.68123        32            D15046         0         0         0         3            ru      1083           tot       0.23077            ru      3185           tot       0.76923           aqu         1           rhg       1.00000  
      33  rtu0033                  0       0.19744      55.35180      23.90769      57.65118        33            D15046         0         0         0         4            ru      3187           sur       1.00000            ru      3187           lat       1.00000           sdc       283           til       1.00000           aqu         1           rhg       1.00000  
      34  rtu0034                  0       0.64442      55.35201      23.90572      55.34393        34            D15046         0         0         0         2            ru      3187           tot       1.00000           aqu         1           rhg       1.00000  
      35  rtu0035                  0       0.86442      55.35328      23.89904      55.82034        35            D15046         0         0         0         2            ru      1083           tot       1.00000           aqu         1           rhg       1.00000  
      36  rtu0036                  0       0.58053      55.35392      23.90477      57.80737        36            D15046         0         0         0         6            ru       905           sur       0.34328            ru       905           lat       0.34328            ru      2356           sur       0.65672            ru      2356           lat       0.65672           sdc       283           til       1.00000           aqu         1           rhg       1.00000  
      37  rtu0037                  0       0.32184      55.35616      23.91672      56.59559        37            D15046         0         0         0         4            ru      2062           sur       1.00000            ru      2062           lat       1.00000           sdc       390           til       1.00000           aqu         1           rhg       1.00000  
      38  rtu0038                  0       0.14041      55.35668      23.89438      52.70981        38            D15046         0         0         0         2           sdc       146           tot       1.00000           aqu         1           rhg       1.00000  
      39  rtu0039                  0       6.38710      55.35676      23.90690      57.68428        39            D15046         0         0         0         4            ru       962           sur       1.00000            ru       962           lat       1.00000           sdc       283           til       1.00000           aqu         1           rhg       1.00000  
      40  rtu0040                  0       0.13162      55.36023      23.90461      59.33133        40            D15046         0         0         0         4            ru      3202           sur       1.00000            ru      3202           lat       1.00000           sdc       283           til       1.00000           aqu         1           rhg       1.00000  
      41  rtu0041                  0       0.39818      55.36160      23.89906      60.65224        41            D15046         0         0         0         4            ru      2408           sur       1.00000            ru      2408           lat       1.00000           sdc       410           til       1.00000           aqu         1           rhg       1.00000  
      42  rtu0042                  0       3.91695      55.36161      23.88868      61.55193        42            D15046         0         0         0         3            ru      2971           tot       0.31403            ru      3195           tot       0.68597           aqu         1           rhg       1.00000  
      43  rtu0043                  0       0.33153      55.36341      23.89409      61.63971        43            D15046         0         0         0         2            ru      3200           tot       1.00000           aqu         1           rhg       1.00000  
      44  rtu0044                  0       0.10562      55.36544      23.87780      63.76287        44            D15046         0         0         0         2            ru      2557           tot       1.00000           aqu         1           rhg       1.00000  
      45  rtu0045                  0       0.26982      55.36525      23.89301      55.00624        45            D15046         0         0         0         2           res        17           tot       1.00000           aqu         1           rhg       1.00000  
      46  rtu0046                  0       0.20007      55.36556      23.87599      63.61909        46            D15046         0         0         0         4            ru       964           sur       1.00000            ru       964           lat       1.00000           sdc       725           til       1.00000           aqu         1           rhg       1.00000  
      47  rtu0047                  0       5.00763      55.36404      23.87811      63.28758        47            D15046         0         0         0         6            ru       964           sur       0.30975            ru       964           lat       0.30975            ru      3201           sur       0.69025            ru      3201           lat       0.69025           sdc       715           til       1.00000           aqu         1           rhg       1.00000  
      48  rtu0048                  0       0.87406      55.36531      23.90060      61.76696        48            D15046         0         0         0         4            ru      2261           sur       1.00000            ru      2261           lat       1.00000           sdc       698           til       1.00000           aqu         1           rhg       1.00000  
      49  rtu0049                  0       1.24458      55.36647      23.89459      56.53523        49            D15046         0         0         0         2           res        17           tot       1.00000           aqu         1           rhg       1.00000  
      50  rtu0050                  0       3.62853      55.36639      23.89735      62.85270        50            D15046         0         0         0        10            ru      1891           sur       0.33143            ru      1891           lat       0.33143            ru      2415           sur       0.26000            ru      2415           lat       0.26000            ru      3206           sur       0.20000            ru      3206           lat       0.20000            ru      3627           sur       0.20857            ru      3627           lat       0.20857           sdc       698           til       1.00000           aqu         1           rhg       1.00000  
      51  rtu0051                  0       0.41220      55.36712      23.90069      62.68975        51            D15046         0         0         0         2            ru       549           tot       1.00000           aqu         1           rhg       1.00000  
      52  rtu0052                  0       1.26070      55.36896      23.89227      58.83724        52            D15046         0         0         0         2            ru      3214           tot       1.00000           aqu         1           rhg       1.00000  
      53  rtu0053                  0       1.04299      55.36912      23.89720      62.46745        53            D15046         0         0         0         4            ru      3208           sur       1.00000            ru      3208           lat       1.00000           sdc       236           til       1.00000           aqu         1           rhg       1.00000  
      54  rtu0054                  0       0.92956      55.36978      23.87835      63.58748        54            D15046         0         0         0         4            ru      3212           sur       1.00000            ru      3212           lat       1.00000           sdc       725           til       1.00000           aqu         1           rhg       1.00000  
      55  rtu0055                  0       0.35830      55.37158      23.87852      63.60492        55            D15046         0         0         0         4            ru      3212           sur       1.00000            ru      3212           lat       1.00000           sdc       725           til       1.00000           aqu         1           rhg       1.00000  
      56  rtu0056                  0       0.10751      55.37202      23.87772      63.71749        56            D15046         0         0         0         4            ru       552           sur       1.00000            ru       552           lat       1.00000           sdc       725           til       1.00000           aqu         1           rhg       1.00000  
      57  rtu0057                  0       0.36637      55.37245      23.87671      63.83193        57            D15046         0         0         0         4            ru      3221           sur       1.00000            ru      3221           lat       1.00000           sdc       725           til       1.00000           aqu         1           rhg       1.00000  
      58  rtu0058                  0       0.49618      55.37445      23.88006      62.42991        58            D15046         0         0         0         4            ru      3225           sur       1.00000            ru      3225           lat       1.00000           sdc       725           til       1.00000           aqu         1           rhg       1.00000  
      59  rtu0059                  0       5.93541      55.37365      23.88444      61.38153        59            D15046         0         0         0         4            ru      2264           sur       1.00000            ru      2264           lat       1.00000           sdc       725           til       1.00000           aqu         1           rhg       1.00000  
      60  rtu0060                  0       0.20891      55.37496      23.89002      62.99678        60            D15046         0         0         0         4            ru      2670           sur       1.00000            ru      2670           lat       1.00000           sdc       236           til       1.00000           aqu         1           rhg       1.00000  
      61  rtu0061                  0       0.79888      55.37546      23.88037      63.02336        61            D15046         0         0         0         4            ru      2265           sur       1.00000            ru      2265           lat       1.00000           sdc       725           til       1.00000           aqu         1           rhg       1.00000  
      62  rtu0062                  0       1.91625      55.37553      23.87473      58.25956        62            D15046         0         0         0         3            ru      1717           tot       0.44079            ru      2081           tot       0.55921           aqu         1           rhg       1.00000  
      63  rtu0063                  0      28.80069      55.37240      23.89670      62.49110        63            D15046         0         0         0         2            ru      3213           tot       1.00000           aqu         1           rhg       1.00000  
      64  rtu0064                  0       1.84600      55.37745      23.87765      63.51575        64            D15046         0         0         0         4            ru      2559           sur       1.00000            ru      2559           lat       1.00000           sdc       725           til       1.00000           aqu         1           rhg       1.00000  
      65  rtu0065                  0       3.06371      55.37754      23.87128      60.92226        65            D15046         0         0         0         8           sdc       379           sur       0.27815           sdc       379           lat       0.27815            ru      2081           sur       0.45916            ru      2081           lat       0.45916            ru      3228           sur       0.26269            ru      3228           lat       0.26269           sdc       725           til       1.00000           aqu         1           rhg       1.00000  
      66  rtu0066                  0       1.24394      55.37816      23.88336      63.96997        66            D15046         0         0         0         4            ru      3634           sur       1.00000            ru      3634           lat       1.00000           sdc       236           til       1.00000           aqu         1           rhg       1.00000  
      67  rtu0067                  0       0.20392      55.37997      23.87534      64.50489        67            D15046         0         0         0         2            ru      3238           tot       1.00000           aqu         1           rhg       1.00000  
      68  rtu0068                  0       1.78180      55.37861      23.89030      62.97900        68            D15046         0         0         0         4            ru      3234           sur       1.00000            ru      3234           lat       1.00000           sdc       236           til       1.00000           aqu         1           rhg       1.00000  
      69  rtu0069                  0       0.98597      55.38008      23.87372      65.17512        69            D15046         0         0         0         2            ru      3054           tot       1.00000           aqu         1           rhg       1.00000  
      70  rtu0070                  0       0.15684      55.38026      23.86815      61.78225        70            D15046         0         0         0         2           sdc       476           tot       1.00000           aqu         1           rhg       1.00000  
      71  rtu0071                  0       4.61049      55.37946      23.89208      63.11945        71            D15046         0         0         0         4            ru       781           sur       1.00000            ru       781           lat       1.00000           sdc       236           til       1.00000           aqu         1           rhg       1.00000  
      72  rtu0072                  0       0.19052      55.38140      23.87377      64.66065        72            D15046         0         0         0         2            ru      3238           tot       1.00000           aqu         1           rhg       1.00000  
      73  rtu0073                  0       1.26853      55.38162      23.87174      65.07863        73            D15046         0         0         0         2            ru      3238           tot       1.00000           aqu         1           rhg       1.00000  
      74  rtu0074                  0       0.14104      55.38216      23.86710      59.51914        74            D15046         0         0         0         2            ru      3237           tot       1.00000           aqu         1           rhg       1.00000  
      75  rtu0075                  0       0.42859      55.38194      23.87786      63.15057        75            D15046         0         0         0         4            ru      3238           sur       1.00000            ru      3238           lat       1.00000           sdc       200           til       1.00000           aqu         1           rhg       1.00000  
      76  rtu0076                  0       0.46875      55.38295      23.86482      63.93062        76            D15046         0         0         0         8           sdc       680           sur       0.34091           sdc       680           lat       0.34091            ru      2086           sur       0.15909            ru      2086           lat       0.15909            ru      3640           sur       0.50000            ru      3640           lat       0.50000           sdc       680           til       1.00000           aqu         1           rhg       1.00000  
      77  rtu0077                  0       1.41471      55.38169      23.87992      63.77985        77            D15046         0         0         0         4            ru      3238           sur       1.00000            ru      3238           lat       1.00000           sdc       200           til       1.00000           aqu         1           rhg       1.00000  
      78  rtu0078                  0       1.08777      55.38295      23.89107      64.36920        78            D15046         0         0         0         4            ru      1719           sur       1.00000            ru      1719           lat       1.00000           sdc       236           til       1.00000           aqu         1           rhg       1.00000  
      79  rtu0079                  0       0.22729      55.38416      23.86160      66.93158        79            D15046         0         0         0         3            ru      1606           tot       0.40000            ru      3243           tot       0.60000           aqu         1           rhg       1.00000  
      80  rtu0080                  0       1.19173      55.38393      23.86317      63.23446        80            D15046         0         0         0         6           sdc       680           sur       0.68111           sdc       680           lat       0.68111            ru      2086           sur       0.31889            ru      2086           lat       0.31889           sdc       680           til       1.00000           aqu         1           rhg       1.00000  
      81  rtu0081                  0       0.10849      55.38496      23.86222      60.74851        81     s55400n23867e         0         0         0         2            ru      2088           tot       1.00000           aqu         1           rhg       1.00000  
      82  rtu0082                  0       0.48832      55.38570      23.86315      60.15576        82     s55400n23867e         0         0         0         3           sdc       680           tot       0.52970            ru       978           tot       0.47030           aqu         1           rhg       1.00000  
      83  rtu0083                  0       0.79070      55.38575      23.87919      69.79945        83            D15046         0         0         0         4            ru      1030           sur       1.00000            ru      1030           lat       1.00000           sdc       200           til       1.00000           aqu         1           rhg       1.00000  
      84  rtu0084                  0       7.01122      55.38419      23.87047      64.81527        84            D15046         0         0         0         2            ru      3641           tot       1.00000           aqu         1           rhg       1.00000  
      85  rtu0085                  0       0.49905      55.38639      23.87445      66.85492        85            D15046         0         0         0         4            ru       911           sur       1.00000            ru       911           lat       1.00000           sdc       200           til       1.00000           aqu         1           rhg       1.00000  
      86  rtu0086                  0       1.30973      55.38635      23.85915      67.05192        86     s55400n23867e         0         0         0         4           sdc       400           sur       1.00000           sdc       400           lat       1.00000           sdc       680           til       1.00000           aqu         1           rhg       1.00000  
      87  rtu0087                  0       0.47408      55.38881      23.86603      67.15230        87     s55400n23867e         0         0         0         4            ru      1630           sur       1.00000            ru      1630           lat       1.00000           sdc       397           til       1.00000           aqu         1           rhg       1.00000  
      88  rtu0088                  0       0.20331      55.38884      23.85649      67.04948        88     s55400n23867e         0         0         0         4            ru      3248           sur       1.00000            ru      3248           lat       1.00000           sdc       394           til       1.00000           aqu         1           rhg       1.00000  