soils.sol: written by SWAT+ editor v2.1.0 on 2024-09-05 13:48 for SWAT+ rev.60.5.4
name                            nly           hyd_grp        dp_tot    anion_excl      perc_crk  texture                              dp            bd           awc        soil_k        carbon          clay          silt          sand          rock           alb        usle_k            ec         caco3            ph  
RDk1-g0                           3                 B    1200.00000       0.50000       0.50000  L-L-UWB                    
                                                                                                                               250.00000       1.87719       0.16909     109.71847       4.13000      14.45874      22.88078      62.66048      10.19564       0.12668       0.17380       0.00000       0.00000       6.50000  
                                                                                                                               400.51459       1.84418       0.16953     100.64511       0.01198      14.58284      22.99706      62.42010      10.15366       0.12668       0.18047       0.00000       0.00000       0.00000  
                                                                                                                              1200.00000       1.79819       0.17647      89.53076       0.00619      17.64405      24.99318      57.36277       8.87927       0.12668       0.18304       0.00000       0.00000       0.00000  
PDz1                              2                 B    1200.00000       0.50000       0.00000  L-L-UWB                    
                                                                                                                               240.97343       0.54000       0.26961     375.00000      15.31000      40.00000      40.00000      20.00000       5.09915       0.10000       0.03990       0.00000       0.00000       4.25000  
                                                                                                                              1230.23102       1.91021       0.13655     114.24229      15.31000      12.39854      19.23148      68.37391       7.28422       0.10000       0.15742       0.00000       0.00000       0.00000  
IDg8-k                            3                 C    1492.48709       0.50000       0.50000  L-L-UWB                    
                                                                                                                               396.24355       1.86161       0.17343     101.64286       5.35000      12.33322      32.74304      54.92374       7.02472       0.13162       0.16853       0.00000       0.00000       4.50000  
                                                                                                                               994.86162       1.76530       0.18054      76.83140       0.01551      14.97151      34.01947      51.00903       7.00227       0.13162       0.18055       0.00000       0.00000       0.00000  
                                                                                                                              1492.48709       1.66881       0.19414      58.25998       0.00802      25.45144      32.16543      42.38313       5.16246       0.13162       0.18896       0.00000       0.00000       0.00000  
RDg8-k2                           3                 C    1419.70703       0.50000       0.50000  L-L-UWB                    
                                                                                                                               359.85352       1.83002       0.17408      92.79632       2.87000      12.26243      33.14190      54.59567       6.46982       0.12646       0.17471       0.00000       0.00000       5.75000  
                                                                                                                               907.44435       1.73060       0.18493      68.18224       0.00832      15.46149      36.00265      48.53586       6.44715       0.12646       0.18192       0.00000       0.00000       0.00000  
                                                                                                                              1419.70703       1.66061       0.19509      54.73904       0.00430      22.98425      35.79394      41.22181       4.79781       0.12646       0.18767       0.00000       0.00000       0.00000  
GLv-k                             3                 C    1207.07306       0.50000       0.00000  L-L-UWB                    
                                                                                                                               243.58968       1.83998       0.17475     178.03260       2.18000       9.41285      20.96855      69.62113       8.22465       0.13939       0.13347       0.00000       0.00000       4.75000  
                                                                                                                               742.98940       1.84476       0.17183     102.24406       0.00632      14.84272      24.86309      60.29419       8.30376       0.13939       0.17752       0.00000       0.00000       0.00000  
                                                                                                                              1207.07306       1.84476       0.17183     102.24406       0.00327      14.84272      24.86309      60.29419       8.30376       0.13939       0.17752       0.00000       0.00000       0.00000  
IDp-t                             3                 B    1500.00000       0.50000       0.50000  L-L-UWB                    
                                                                                                                               379.39622       1.92645       0.16667     121.77589       2.01000       8.75910      30.26613      60.97477       5.20782       0.13399       0.16532       0.00000       0.00000       5.00000  
                                                                                                                              1000.00000       1.75256       0.18570      79.01532       0.00583      15.67151      34.03636      50.29214       5.36290       0.13399       0.17856       0.00000       0.00000       0.00000  
                                                                                                                              1500.00000       1.65040       0.20133      55.76254       0.00301      23.05219      36.77736      40.17045       2.64540       0.13399       0.18401       0.00000       0.00000       0.00000  
GLk2                              3                 C    1200.00000       0.50000       0.50000  L-L-UWB                    
                                                                                                                               249.99259       1.86573       0.17100     103.77601       2.18000      13.17503      28.18374      58.64123       8.64203       0.12854       0.17218       0.00000       0.00000       6.00000  
                                                                                                                               663.36524       1.82294       0.17255      92.25080       0.00632      13.79671      28.61592      57.58736       8.44753       0.12854       0.17886       0.00000       0.00000       0.00000  
                                                                                                                              1200.00000       1.75092       0.18351      77.73230       0.00327      20.22629      29.48680      50.28690       6.68385       0.12854       0.18387       0.00000       0.00000       0.00000  
RDk2-g0                           3                 B    1355.76167       0.50000       0.50000  L-L-UWB                    
                                                                                                                               287.49228       1.87515       0.17194     107.55794       4.12993      13.15313      28.81981      58.02706       7.64747       0.13084       0.16886       0.00000       0.00000       6.50000  
                                                                                                                               768.83281       1.77075       0.17984      80.69226       0.01198      15.48659      30.78985      53.72355       7.66983       0.13084       0.18119       0.00000       0.00000       0.00000  
                                                                                                                              1355.76167       1.72929       0.18584      73.05541       0.00619      21.79338      28.06701      50.13961       7.10994       0.13084       0.18616       0.00000       0.00000       0.00000  
SDp-b                             3                 A    1317.64312       0.50000       0.00000  L-L-UWB                    
                                                                                                                               460.68750       2.06574       0.11899     149.99992       1.33000       7.72762      19.38067      72.89172       1.90632       0.20234       0.10134       0.00000       0.00000       5.00000  
                                                                                                                               999.98322       2.09248       0.08018     149.99662       0.00386       8.12970      10.29772      81.57258       3.03608       0.20234       0.08580       0.00000       0.00000       0.00000  
                                                                                                                              1317.64312       2.09248       0.06275     149.99613       0.00199       5.42825       8.00903      86.56272       4.91226       0.20234       0.11417       0.00000       0.00000       0.00000  
SDp-b-g0                          3                 A    1500.00000       0.50000       0.00000  L-L-UWB                    
                                                                                                                               399.76782       2.05352       0.13381     150.00000       1.33000       7.09184      23.14764      69.76052       1.70265       0.18515       0.11318       0.00000       0.00000       5.00000  
                                                                                                                              1000.00000       2.09250       0.07792     150.00000       0.00386       7.78114      10.00208      82.21679       3.27699       0.18515       0.08945       0.00000       0.00000       0.00000  
                                                                                                                              1500.00000       2.09250       0.06375     150.00000       0.00199       5.58309       8.13984      86.27708       4.80341       0.18515       0.11253       0.00000       0.00000       0.00000  
