time.sim: written by SWAT+ editor v2.1.0 on 2024-09-05 13:47 for SWAT+ rev.60.5.4 and edited with SWATfarmR 2.0.5 on 2024-09-11 08:12:26.7029
day_start  yrc_start   day_end   yrc_end      step  
        0       1994         0      2019         0
