topography.hyd: written by SWAT+ editor v2.1.0 on 2024-09-05 13:48 for SWAT+ rev.60.5.4
name                       slp       slp_len       lat_len      dist_cha         depos  
topohru0001            0.01269      30.00000      30.00000     121.00000       0.00000  
topohru0002            0.09667      30.00000      30.00000     121.00000       0.00000  
topohru0003            0.05010      30.00000      30.00000     121.00000       0.00000  
topohru0004            0.00724      30.00000      30.00000     121.00000       0.00000  
topohru0005            0.00512      30.00000      30.00000     121.00000       0.00000  
topohru0006            0.02092      30.00000      30.00000     121.00000       0.00000  
topohru0007            0.02772      30.00000      30.00000     121.00000       0.00000  
topohru0008            0.01274      30.00000      30.00000     121.00000       0.00000  
topohru0009            0.00711      30.00000      30.00000     121.00000       0.00000  
topohru0010            0.03452      30.00000      30.00000     121.00000       0.00000  
topohru0011            0.01264      30.00000      30.00000     121.00000       0.00000  
topohru0012            0.02544      30.00000      30.00000     121.00000       0.00000  
topohru0013            0.02005      30.00000      30.00000     121.00000       0.00000  
topohru0014            0.01244      30.00000      30.00000     121.00000       0.00000  
topohru0015            0.04261      30.00000      30.00000     121.00000       0.00000  
topohru0016            0.01379      30.00000      30.00000     121.00000       0.00000  
topohru0017            0.04218      30.00000      30.00000     121.00000       0.00000  
topohru0018            0.07020      30.00000      30.00000     121.00000       0.00000  
topohru0019            0.00811      30.00000      30.00000     121.00000       0.00000  
topohru0020            0.00537      30.00000      30.00000     121.00000       0.00000  
topohru0021            0.01088      30.00000      30.00000     121.00000       0.00000  
topohru0022            0.01833      30.00000      30.00000     121.00000       0.00000  
topohru0023            0.01202      30.00000      30.00000     121.00000       0.00000  
topohru0024            0.01594      30.00000      30.00000     121.00000       0.00000  
topohru0025            0.03386      30.00000      30.00000     121.00000       0.00000  
topohru0026            0.07490      30.00000      30.00000     121.00000       0.00000  
topohru0027            0.00950      30.00000      30.00000     121.00000       0.00000  
topohru0028            0.03868      30.00000      30.00000     121.00000       0.00000  
topohru0029            0.06563      30.00000      30.00000     121.00000       0.00000  
topohru0030            0.02921      30.00000      30.00000     121.00000       0.00000  
topohru0031            0.02263      30.00000      30.00000     121.00000       0.00000  
topohru0032            0.04489      30.00000      30.00000     121.00000       0.00000  
topohru0033            0.02240      30.00000      30.00000     121.00000       0.00000  
topohru0034            0.08351      30.00000      30.00000     121.00000       0.00000  
topohru0035            0.06265      30.00000      30.00000     121.00000       0.00000  
topohru0036            0.01055      30.00000      30.00000     121.00000       0.00000  
topohru0037            0.01430      30.00000      30.00000     121.00000       0.00000  
topohru0038            0.03315      30.00000      30.00000     121.00000       0.00000  
topohru0039            0.00853      30.00000      30.00000     121.00000       0.00000  
topohru0040            0.01686      30.00000      30.00000     121.00000       0.00000  
topohru0041            0.00799      30.00000      30.00000     121.00000       0.00000  
topohru0042            0.01307      30.00000      30.00000     121.00000       0.00000  
topohru0043            0.02878      30.00000      30.00000     121.00000       0.00000  
topohru0044            0.00943      30.00000      30.00000     121.00000       0.00000  
topohru0045            0.00191      30.00000      30.00000     121.00000       0.00000  
topohru0046            0.01033      30.00000      30.00000     121.00000       0.00000  
topohru0047            0.01103      30.00000      30.00000     121.00000       0.00000  
topohru0048            0.00790      30.00000      30.00000     121.00000       0.00000  
topohru0049            0.04572      30.00000      30.00000     121.00000       0.00000  
topohru0050            0.01351      30.00000      30.00000     121.00000       0.00000  
topohru0051            0.00630      30.00000      30.00000     121.00000       0.00000  
topohru0052            0.02882      30.00000      30.00000     121.00000       0.00000  
topohru0053            0.01142      30.00000      30.00000     121.00000       0.00000  
topohru0054            0.01082      30.00000      30.00000     121.00000       0.00000  
topohru0055            0.01270      30.00000      30.00000     121.00000       0.00000  
topohru0056            0.02035      30.00000      30.00000     121.00000       0.00000  
topohru0057            0.01139      30.00000      30.00000     121.00000       0.00000  
topohru0058            0.01733      30.00000      30.00000     121.00000       0.00000  
topohru0059            0.02039      30.00000      30.00000     121.00000       0.00000  
topohru0060            0.00838      30.00000      30.00000     121.00000       0.00000  
topohru0061            0.01124      30.00000      30.00000     121.00000       0.00000  
topohru0062            0.03377      30.00000      30.00000     121.00000       0.00000  
topohru0063            0.01016      30.00000      30.00000     121.00000       0.00000  
topohru0064            0.01125      30.00000      30.00000     121.00000       0.00000  
topohru0065            0.04159      30.00000      30.00000     121.00000       0.00000  
topohru0066            0.01125      30.00000      30.00000     121.00000       0.00000  
topohru0067            0.01532      30.00000      30.00000     121.00000       0.00000  
topohru0068            0.00609      30.00000      30.00000     121.00000       0.00000  
topohru0069            0.01354      30.00000      30.00000     121.00000       0.00000  
topohru0070            0.04394      30.00000      30.00000     121.00000       0.00000  
topohru0071            0.00804      30.00000      30.00000     121.00000       0.00000  
topohru0072            0.02647      30.00000      30.00000     121.00000       0.00000  
topohru0073            0.02122      30.00000      30.00000     121.00000       0.00000  
topohru0074            0.02088      30.00000      30.00000     121.00000       0.00000  
topohru0075            0.00573      30.00000      30.00000     121.00000       0.00000  
topohru0076            0.04135      30.00000      30.00000     121.00000       0.00000  
topohru0077            0.02301      30.00000      30.00000     121.00000       0.00000  
topohru0078            0.01678      30.00000      30.00000     121.00000       0.00000  
topohru0079            0.02905      30.00000      30.00000     121.00000       0.00000  
topohru0080            0.04771      30.00000      30.00000     121.00000       0.00000  
topohru0081            0.01997      30.00000      30.00000     121.00000       0.00000  
topohru0082            0.04369      30.00000      30.00000     121.00000       0.00000  
topohru0083            0.02462      30.00000      30.00000     121.00000       0.00000  
topohru0084            0.01481      30.00000      30.00000     121.00000       0.00000  
topohru0085            0.01286      30.00000      30.00000     121.00000       0.00000  
topohru0086            0.01437      30.00000      30.00000     121.00000       0.00000  
topohru0087            0.01023      30.00000      30.00000     121.00000       0.00000  
topohru0088            0.02653      30.00000      30.00000     121.00000       0.00000  
topohru0089            0.03444      30.00000      30.00000     121.00000       0.00000  
topohru0090            0.02122      30.00000      30.00000     121.00000       0.00000  
topohru0091            0.02191      30.00000      30.00000     121.00000       0.00000  
topohru0092            0.00668      30.00000      30.00000     121.00000       0.00000  
topohru0093            0.07378      30.00000      30.00000     121.00000       0.00000  
topohru0094            0.01356      30.00000      30.00000     121.00000       0.00000  
topohru0095            0.05006      30.00000      30.00000     121.00000       0.00000  
topohru0096            0.07310      30.00000      30.00000     121.00000       0.00000  
topohru0097            0.04870      30.00000      30.00000     121.00000       0.00000  
topohru0098            0.01244      30.00000      30.00000     121.00000       0.00000  
topohru0099            0.02814      30.00000      30.00000     121.00000       0.00000  
topohru0100            0.02782      30.00000      30.00000     121.00000       0.00000  
topohru0101            0.00719      30.00000      30.00000     121.00000       0.00000  
topohru0102            0.00682      30.00000      30.00000     121.00000       0.00000  
topohru0103            0.01031      30.00000      30.00000     121.00000       0.00000  
topohru0104            0.00902      30.00000      30.00000     121.00000       0.00000  
topohru0105            0.00559      30.00000      30.00000     121.00000       0.00000  
topohru0106            0.01609      30.00000      30.00000     121.00000       0.00000  
topohru0107            0.00589      30.00000      30.00000     121.00000       0.00000  
topohru0108            0.00861      30.00000      30.00000     121.00000       0.00000  
topohru0109            0.00626      30.00000      30.00000     121.00000       0.00000  
topohru0110            0.01737      30.00000      30.00000     121.00000       0.00000  
topohru0111            0.00622      30.00000      30.00000     121.00000       0.00000  
topohru0112            0.02130      30.00000      30.00000     121.00000       0.00000  
topohru0113            0.00318      30.00000      30.00000     121.00000       0.00000  
topohru0114            0.00880      30.00000      30.00000     121.00000       0.00000  
topohru0115            0.01782      30.00000      30.00000     121.00000       0.00000  
topohru0116            0.01447      30.00000      30.00000     121.00000       0.00000  
topohru0117            0.01173      30.00000      30.00000     121.00000       0.00000  
topohru0118            0.00836      30.00000      30.00000     121.00000       0.00000  
topohru0119            0.01319      30.00000      30.00000     121.00000       0.00000  
topohru0120            0.02357      30.00000      30.00000     121.00000       0.00000  
topohru0121            0.00937      30.00000      30.00000     121.00000       0.00000  
topohru0122            0.01092      30.00000      30.00000     121.00000       0.00000  
topohru0123            0.00766      30.00000      30.00000     121.00000       0.00000  
topohru0124            0.00647      30.00000      30.00000     121.00000       0.00000  
topohru0125            0.01475      30.00000      30.00000     121.00000       0.00000  
topohru0126            0.01177      30.00000      30.00000     121.00000       0.00000  
topohru0127            0.01873      30.00000      30.00000     121.00000       0.00000  
topohru0128            0.00833      30.00000      30.00000     121.00000       0.00000  
topohru0129            0.00624      30.00000      30.00000     121.00000       0.00000  
topohru0130            0.01368      30.00000      30.00000     121.00000       0.00000  
topohru0131            0.01111      30.00000      30.00000     121.00000       0.00000  
topohru0132            0.00894      30.00000      30.00000     121.00000       0.00000  
topohru0133            0.00531      30.00000      30.00000     121.00000       0.00000  
topohru0134            0.03270      30.00000      30.00000     121.00000       0.00000  
topohru0135            0.01387      30.00000      30.00000     121.00000       0.00000  
topohru0136            0.00681      30.00000      30.00000     121.00000       0.00000  
topohru0137            0.00978      30.00000      30.00000     121.00000       0.00000  
topohru0138            0.01174      30.00000      30.00000     121.00000       0.00000  
topohru0139            0.01231      30.00000      30.00000     121.00000       0.00000  
topohru0140            0.02462      30.00000      30.00000     121.00000       0.00000  
topohru0141            0.01484      30.00000      30.00000     121.00000       0.00000  
topohru0142            0.00979      30.00000      30.00000     121.00000       0.00000  
topohru0143            0.04333      30.00000      30.00000     121.00000       0.00000  
topohru0144            0.00621      30.00000      30.00000     121.00000       0.00000  
topohru0145            0.01143      30.00000      30.00000     121.00000       0.00000  
topohru0146            0.00670      30.00000      30.00000     121.00000       0.00000  
topohru0147            0.02021      30.00000      30.00000     121.00000       0.00000  
topohru0148            0.01214      30.00000      30.00000     121.00000       0.00000  
topohru0149            0.01147      30.00000      30.00000     121.00000       0.00000  
topohru0150            0.01431      30.00000      30.00000     121.00000       0.00000  
topohru0151            0.05929      30.00000      30.00000     121.00000       0.00000  
topohru0152            0.16727      30.00000      30.00000     121.00000       0.00000  
topohru0153            0.00957      30.00000      30.00000     121.00000       0.00000  
topohru0154            0.00725      30.00000      30.00000     121.00000       0.00000  
topohru0155            0.09957      30.00000      30.00000     121.00000       0.00000  
topohru0156            0.00653      30.00000      30.00000     121.00000       0.00000  
topohru0157            0.01170      30.00000      30.00000     121.00000       0.00000  
topohru0158            0.01028      30.00000      30.00000     121.00000       0.00000  
topohru0159            0.06678      30.00000      30.00000     121.00000       0.00000  
topohru0160            0.05178      30.00000      30.00000     121.00000       0.00000  
topohru0161            0.05230      30.00000      30.00000     121.00000       0.00000  
topohru0162            0.06800      30.00000      30.00000     121.00000       0.00000  
topohru0163            0.01348      30.00000      30.00000     121.00000       0.00000  
topohru0164            0.01222      30.00000      30.00000     121.00000       0.00000  
topohru0165            0.00888      30.00000      30.00000     121.00000       0.00000  
topohru0166            0.00833      30.00000      30.00000     121.00000       0.00000  
topohru0167            0.01019      30.00000      30.00000     121.00000       0.00000  
topohru0168            0.09181      30.00000      30.00000     121.00000       0.00000  
topohru0169            0.05721      30.00000      30.00000     121.00000       0.00000  
topohru0170            0.00797      30.00000      30.00000     121.00000       0.00000  
topohru0171            0.01058      30.00000      30.00000     121.00000       0.00000  
topohru0172            0.12477      30.00000      30.00000     121.00000       0.00000  
topohru0173            0.01021      30.00000      30.00000     121.00000       0.00000  
topohru0174            0.01884      30.00000      30.00000     121.00000       0.00000  
topohru0175            0.03985      30.00000      30.00000     121.00000       0.00000  
topohru0176            0.07967      30.00000      30.00000     121.00000       0.00000  
topohru0177            0.05919      30.00000      30.00000     121.00000       0.00000  
topohru0178            0.02498      30.00000      30.00000     121.00000       0.00000  
topohru0179            0.03103      30.00000      30.00000     121.00000       0.00000  
topohru0180            0.01570      30.00000      30.00000     121.00000       0.00000  
topohru0181            0.04743      30.00000      30.00000     121.00000       0.00000  
topohru0182            0.00858      30.00000      30.00000     121.00000       0.00000  
topohru0183            0.03366      30.00000      30.00000     121.00000       0.00000  
topohru0184            0.01593      30.00000      30.00000     121.00000       0.00000  
topohru0185            0.02195      30.00000      30.00000     121.00000       0.00000  
topohru0186            0.02280      30.00000      30.00000     121.00000       0.00000  
topohru0187            0.02493      30.00000      30.00000     121.00000       0.00000  
topohru0188            0.02759      30.00000      30.00000     121.00000       0.00000  
topohru0189            0.02963      30.00000      30.00000     121.00000       0.00000  
topohru0190            0.02229      30.00000      30.00000     121.00000       0.00000  
topohru0191            0.01987      30.00000      30.00000     121.00000       0.00000  
topohru0192            0.02147      30.00000      30.00000     121.00000       0.00000  
topohru0193            0.00978      30.00000      30.00000     121.00000       0.00000  
topohru0194            0.01738      30.00000      30.00000     121.00000       0.00000  
topohru0195            0.02533      30.00000      30.00000     121.00000       0.00000  
topohru0196            0.01670      30.00000      30.00000     121.00000       0.00000  
topohru0197            0.01408      30.00000      30.00000     121.00000       0.00000  
topohru0198            0.08983      30.00000      30.00000     121.00000       0.00000  
topohru0199            0.03270      30.00000      30.00000     121.00000       0.00000  
topohru0200            0.04388      30.00000      30.00000     121.00000       0.00000  
topohru0201            0.00775      30.00000      30.00000     121.00000       0.00000  
topohru0202            0.02078      30.00000      30.00000     121.00000       0.00000  
topohru0203            0.00984      30.00000      30.00000     121.00000       0.00000  
topohru0204            0.02472      30.00000      30.00000     121.00000       0.00000  
topohru0205            0.01453      30.00000      30.00000     121.00000       0.00000  
topohru0206            0.02272      30.00000      30.00000     121.00000       0.00000  
topohru0207            0.02249      30.00000      30.00000     121.00000       0.00000  
topohru0208            0.02177      30.00000      30.00000     121.00000       0.00000  
topohru0209            0.01710      30.00000      30.00000     121.00000       0.00000  
topohru0210            0.05219      30.00000      30.00000     121.00000       0.00000  
topohru0211            0.03392      30.00000      30.00000     121.00000       0.00000  
topohru0212            0.01632      30.00000      30.00000     121.00000       0.00000  
topohru0213            0.03812      30.00000      30.00000     121.00000       0.00000  
topohru0214            0.01869      30.00000      30.00000     121.00000       0.00000  
topohru0215            0.01335      30.00000      30.00000     121.00000       0.00000  
topohru0216            0.00896      30.00000      30.00000     121.00000       0.00000  
topohru0217            0.02739      30.00000      30.00000     121.00000       0.00000  
topohru0218            0.02340      30.00000      30.00000     121.00000       0.00000  
topohru0219            0.04395      30.00000      30.00000     121.00000       0.00000  
topohru0220            0.03131      30.00000      30.00000     121.00000       0.00000  
topohru0221            0.03982      30.00000      30.00000     121.00000       0.00000  
topohru0222            0.02920      30.00000      30.00000     121.00000       0.00000  
topohru0223            0.08787      30.00000      30.00000     121.00000       0.00000  
topohru0224            0.01204      30.00000      30.00000     121.00000       0.00000  
topohru0225            0.01427      30.00000      30.00000     121.00000       0.00000  
topohru0226            0.08167      30.00000      30.00000     121.00000       0.00000  
topohru0227            0.01145      30.00000      30.00000     121.00000       0.00000  
topohru0228            0.06965      30.00000      30.00000     121.00000       0.00000  
topohru0229            0.02063      30.00000      30.00000     121.00000       0.00000  
topohru0230            0.02208      30.00000      30.00000     121.00000       0.00000  
topohru0231            0.06711      30.00000      30.00000     121.00000       0.00000  
topohru0232            0.02474      30.00000      30.00000     121.00000       0.00000  
topohru0233            0.04467      30.00000      30.00000     121.00000       0.00000  
topohru0234            0.00797      30.00000      30.00000     121.00000       0.00000  
topohru0235            0.02299      30.00000      30.00000     121.00000       0.00000  
topohru0236            0.07059      30.00000      30.00000     121.00000       0.00000  
topohru0237            0.01591      30.00000      30.00000     121.00000       0.00000  
topohru0238            0.01801      30.00000      30.00000     121.00000       0.00000  
topohru0239            0.01394      30.00000      30.00000     121.00000       0.00000  
topohru0240            0.01977      30.00000      30.00000     121.00000       0.00000  
topohru0241            0.01823      30.00000      30.00000     121.00000       0.00000  
topohru0242            0.03880      30.00000      30.00000     121.00000       0.00000  
topohru0243            0.04742      30.00000      30.00000     121.00000       0.00000  
topohru0244            0.05084      30.00000      30.00000     121.00000       0.00000  
topohru0245            0.02972      30.00000      30.00000     121.00000       0.00000  
topohru0246            0.02106      30.00000      30.00000     121.00000       0.00000  
topohru0247            0.01615      30.00000      30.00000     121.00000       0.00000  
topohru0248            0.01952      30.00000      30.00000     121.00000       0.00000  
topohru0249            0.01055      30.00000      30.00000     121.00000       0.00000  
topohru0250            0.01160      30.00000      30.00000     121.00000       0.00000  
topohru0251            0.00985      30.00000      30.00000     121.00000       0.00000  
topohru0252            0.02113      30.00000      30.00000     121.00000       0.00000  
topohru0253            0.12944      30.00000      30.00000     121.00000       0.00000  
topohru0254            0.01286      30.00000      30.00000     121.00000       0.00000  
topohru0255            0.00247      30.00000      30.00000     121.00000       0.00000  
topohru0256            0.01800      30.00000      30.00000     121.00000       0.00000  
topohru0257            0.00500      30.00000      30.00000     121.00000       0.00000  
topohru0258            0.03503      30.00000      30.00000     121.00000       0.00000  
topohru0259            0.01751      30.00000      30.00000     121.00000       0.00000  
topohru0260            0.06347      30.00000      30.00000     121.00000       0.00000  
topohru0261            0.05273      30.00000      30.00000     121.00000       0.00000  
topohru0262            0.02625      30.00000      30.00000     121.00000       0.00000  
topohru0263            0.13548      30.00000      30.00000     121.00000       0.00000  
topohru0264            0.07625      30.00000      30.00000     121.00000       0.00000  
topohru0265            0.01100      30.00000      30.00000     121.00000       0.00000  
topohru0266            0.01973      30.00000      30.00000     121.00000       0.00000  
topohru0267            0.01550      30.00000      30.00000     121.00000       0.00000  
topohru0268            0.08470      30.00000      30.00000     121.00000       0.00000  
topohru0269            0.01500      30.00000      30.00000     121.00000       0.00000  
topohru0270            0.02245      30.00000      30.00000     121.00000       0.00000  
topohru0271            0.00889      30.00000      30.00000     121.00000       0.00000  
topohru0272            0.01928      30.00000      30.00000     121.00000       0.00000  
topohru0273            0.04413      30.00000      30.00000     121.00000       0.00000  
topohru0274            0.00278      30.00000      30.00000     121.00000       0.00000  
topohru0275            0.02865      30.00000      30.00000     121.00000       0.00000  
topohru0276            0.02539      30.00000      30.00000     121.00000       0.00000  
topohru0277            0.06717      30.00000      30.00000     121.00000       0.00000  
topohru0278            0.01553      30.00000      30.00000     121.00000       0.00000  
topohru0279            0.02350      30.00000      30.00000     121.00000       0.00000  
topohru0280            0.03597      30.00000      30.00000     121.00000       0.00000  
topohru0281            0.02884      30.00000      30.00000     121.00000       0.00000  
topohru0282            0.00884      30.00000      30.00000     121.00000       0.00000  
topohru0283            0.03172      30.00000      30.00000     121.00000       0.00000  
topohru0284            0.01171      30.00000      30.00000     121.00000       0.00000  
topohru0285            0.14742      30.00000      30.00000     121.00000       0.00000  
topohru0286            0.01489      30.00000      30.00000     121.00000       0.00000  
topohru0287            0.06153      30.00000      30.00000     121.00000       0.00000  
topohru0288            0.03928      30.00000      30.00000     121.00000       0.00000  
topohru0289            0.06285      30.00000      30.00000     121.00000       0.00000  
topohru0290            0.03429      30.00000      30.00000     121.00000       0.00000  
topohru0291            0.00735      30.00000      30.00000     121.00000       0.00000  
topohru0292            0.01545      30.00000      30.00000     121.00000       0.00000  
topohru0293            0.06049      30.00000      30.00000     121.00000       0.00000  
topohru0294            0.01785      30.00000      30.00000     121.00000       0.00000  
topohru0295            0.01318      30.00000      30.00000     121.00000       0.00000  
topohru0296            0.01219      30.00000      30.00000     121.00000       0.00000  
topohru0297            0.01200      30.00000      30.00000     121.00000       0.00000  
topohru0298            0.08992      30.00000      30.00000     121.00000       0.00000  
topohru0299            0.04232      30.00000      30.00000     121.00000       0.00000  
topohru0300            0.02024      30.00000      30.00000     121.00000       0.00000  
topohru0301            0.02202      30.00000      30.00000     121.00000       0.00000  
topohru0302            0.02618      30.00000      30.00000     121.00000       0.00000  
topohru0303            0.03177      30.00000      30.00000     121.00000       0.00000  
topohru0304            0.02365      30.00000      30.00000     121.00000       0.00000  
topohru0305            0.05080      30.00000      30.00000     121.00000       0.00000  
topohru0306            0.01699      30.00000      30.00000     121.00000       0.00000  
topohru0307            0.04018      30.00000      30.00000     121.00000       0.00000  
topohru0308            0.03628      30.00000      30.00000     121.00000       0.00000  
topohru0309            0.11575      30.00000      30.00000     121.00000       0.00000  
topohru0310            0.00756      30.00000      30.00000     121.00000       0.00000  
topohru0311            0.04046      30.00000      30.00000     121.00000       0.00000  
topohru0312            0.11463      30.00000      30.00000     121.00000       0.00000  
topohru0313            0.01163      30.00000      30.00000     121.00000       0.00000  
topohru0314            0.01849      30.00000      30.00000     121.00000       0.00000  
topohru0315            0.07001      30.00000      30.00000     121.00000       0.00000  
topohru0316            0.02616      30.00000      30.00000     121.00000       0.00000  
topohru0317            0.05346      30.00000      30.00000     121.00000       0.00000  
topohru0318            0.02327      30.00000      30.00000     121.00000       0.00000  
topohru0319            0.00779      30.00000      30.00000     121.00000       0.00000  
topohru0320            0.01570      30.00000      30.00000     121.00000       0.00000  
topohru0321            0.01520      30.00000      30.00000     121.00000       0.00000  
topohru0322            0.00769      30.00000      30.00000     121.00000       0.00000  
topohru0323            0.01408      30.00000      30.00000     121.00000       0.00000  
topohru0324            0.03021      30.00000      30.00000     121.00000       0.00000  
topohru0325            0.00639      30.00000      30.00000     121.00000       0.00000  
topohru0326            0.01783      30.00000      30.00000     121.00000       0.00000  
topohru0327            0.01842      30.00000      30.00000     121.00000       0.00000  
topohru0328            0.02016      30.00000      30.00000     121.00000       0.00000  
topohru0329            0.04584      30.00000      30.00000     121.00000       0.00000  
topohru0330            0.02760      30.00000      30.00000     121.00000       0.00000  
topohru0331            0.01244      30.00000      30.00000     121.00000       0.00000  
topohru0332            0.01199      30.00000      30.00000     121.00000       0.00000  
topohru0333            0.00995      30.00000      30.00000     121.00000       0.00000  
topohru0334            0.01034      30.00000      30.00000     121.00000       0.00000  
topohru0335            0.01071      30.00000      30.00000     121.00000       0.00000  