weather-wgn.cli: written by SWAT+ editor v2.1.0 on 2024-09-05 13:47 for SWAT+ rev.60.5.4
Dotnuva                        55.40000      23.86666      10.00000        23  
 tmp_max_ave   tmp_min_ave    tmp_max_sd    tmp_min_sd       pcp_ave        pcp_sd      pcp_skew       wet_dry       wet_wet      pcp_days       pcp_hhr       slr_ave       dew_ave       wnd_ave  
    -1.25000      -5.16000       5.41000       6.71000      37.08000       2.19000       3.46000       0.30000       0.69000      15.48000      21.21000       1.87000      -5.36501       2.77000  
    -1.15000      -6.14000       5.47000       7.14000      31.22000       1.87000       2.43000       0.39000       0.68000      15.13000      11.49000       4.24000      -6.10917       2.66000  
     3.79000      -2.46000       4.57000       4.63000      29.47000       2.07000       3.53000       0.29000       0.54000      12.35000      19.28000       8.55000      -2.72789       2.65000  
    12.18000       3.16000       5.71000       3.83000      28.70000       2.36000       3.62000       0.21000       0.55000       9.65000      22.17000      13.49000       2.34683       2.43000  
    17.64000       7.42000       4.86000       3.65000      46.31000       3.52000       4.30000       0.25000       0.58000      11.70000      35.44000      17.83000       6.57237       2.22000  
    20.32000      11.06000       4.05000       2.92000      59.41000       4.92000       6.55000       0.35000       0.57000      13.17000      58.79000      18.92000      10.45166       1.97000  
    23.35000      13.77000       4.18000       2.73000      76.12000       5.94000       3.87000       0.33000       0.56000      13.65000      45.93000      17.88000      13.42021       1.86000  
    22.32000      12.78000       3.89000       2.71000      65.99000       4.80000       3.81000       0.29000       0.63000      13.70000      34.79000      14.99000      12.86724       1.84000  
    16.79000       8.67000       3.90000       3.34000      45.95000       3.67000       4.18000       0.29000       0.58000      12.09000      34.79000       9.94000       9.18381       2.06000  
    10.16000       4.31000       4.06000       3.85000      54.05000       3.65000       3.39000       0.30000       0.61000      13.74000      32.96000       4.97000       4.71400       2.18000  
     3.76000       0.11000       4.58000       4.91000      43.12000       3.01000       3.82000       0.35000       0.59000      13.83000      28.09000       1.96000       0.15914       2.49000  
    -0.48000      -4.03000       5.15000       6.23000      41.61000       2.45000       2.96000       0.39000       0.61000      15.48000      17.82000       1.27000      -3.97077       2.57000  
Panevezys                      55.75000      24.38334      10.00000        23  
 tmp_max_ave   tmp_min_ave    tmp_max_sd    tmp_min_sd       pcp_ave        pcp_sd      pcp_skew       wet_dry       wet_wet      pcp_days       pcp_hhr       slr_ave       dew_ave       wnd_ave  
    -1.24000      -5.35000       5.27000       6.88000      38.27000       2.09000       2.98000       0.42000       0.71000      18.48000      18.80000       1.87000      -5.14691       3.60000  
    -1.18000      -6.47000       5.26000       7.38000      34.15000       1.99000       3.05000       0.46000       0.69000      16.61000      18.51000       4.24000      -6.12886       3.46000  
     3.78000      -2.86000       4.55000       4.83000      34.20000       2.29000       4.03000       0.36000       0.59000      14.87000      25.08000       8.55000      -2.75585       3.38000  
    12.09000       2.81000       5.66000       3.97000      35.93000       3.01000       4.22000       0.30000       0.56000      12.30000      28.27000      13.49000       2.53724       3.03000  
    17.45000       7.06000       4.88000       3.91000      54.43000       4.34000       5.54000       0.26000       0.64000      12.96000      50.93000      17.83000       6.73724       2.94000  
    20.41000      10.85000       4.12000       3.26000      68.30000       5.31000       4.25000       0.38000       0.57000      14.17000      43.95000      18.92000      10.81084       2.79000  
    23.44000      13.58000       4.10000       2.89000      84.26000       7.18000       5.92000       0.34000       0.57000      14.17000      64.31000      17.88000      13.99959       2.56000  
    22.22000      12.44000       3.90000       3.01000      64.56000       4.13000       2.81000       0.30000       0.65000      14.43000      30.65000      14.99000      13.26243       2.52000  
    16.70000       8.17000       3.91000       3.56000      51.10000       3.65000       3.59000       0.32000       0.63000      13.61000      33.04000       9.94000       9.44982       2.66000  
    10.04000       4.05000       4.06000       4.01000      61.16000       4.02000       3.29000       0.32000       0.68000      15.57000      31.00000       4.97000       4.86457       3.05000  
     3.73000      -0.03000       4.59000       5.06000      47.26000       2.93000       3.26000       0.42000       0.67000      17.00000      25.63000       1.96000       0.23119       3.34000  
    -0.52000      -4.16000       5.10000       6.32000      43.34000       2.39000       3.17000       0.46000       0.70000      18.43000      22.17000       1.27000      -3.90399       3.39000  
