exco.exc: written by SWAT+ editor v2.1.0 on 2023-02-24 18:07 for SWAT+ rev.60.5.4
name                            om              pest              path              hmet              salt  
wwtp                          wwtp              null              null              null              null  
