exco_om.exc: written by SWAT+ editor v2.1.0 on 2023-02-24 18:07 for SWAT+ rev.60.5.4
name                       flo           sed          orgn          sedp           no3          solp          chla           nh3           no2          cbod           dox          sand          silt          clay           sag           lag        gravel           tmp  
wwtp                 629.70000       0.00000       0.00000       0.00000       2.79300       0.17000       0.00000       0.09300       0.02200       3.77800       2.51900       0.00000       0.00000       0.00000       0.00000       0.00000       0.00000       0.00000  
