hyd-sed-lte.cha: written by SWAT+ editor v2.1.0 on 2023-02-24 18:06 for SWAT+ rev.60.5.4
name                         order            wd            dp           slp           len          mann             k     erod_fact      cov_fact        wd_rto        eq_slp           d50          clay        carbon        dry_bd      side_slp      bed_load           fps           fpn        n_conc        p_conc         p_bio  description
hydcha0001                    null       1.49167       0.20950       0.01942       0.27135       0.05000       1.00000       0.50000       8.00000       7.12007       0.00100      12.00000      50.00000       0.04000       1.00000       0.50000       0.50000       1.00000       1.00000       1.00000      10.00000       0.50000  
hydcha0002                    null       1.92990       0.24484       0.01926       0.20559       0.05000       1.00000       0.50000       8.00000       7.88236       0.00100      12.00000      50.00000       0.04000       1.00000       0.50000       0.50000       1.00000       1.00000       1.00000      10.00000       0.50000  
hydcha0003                    null       2.19091       0.26437       0.00725       0.23446       0.05000       1.00000       0.50000       8.00000       8.28725       0.00100      12.00000      50.00000       0.04000       1.00000       0.50000       0.50000       1.00000       1.00000       1.00000      10.00000       0.50000  
hydcha0004                    null       2.69854       0.29990       0.01625       0.24124       0.05000       1.00000       0.50000       8.00000       8.99808       0.00100      12.00000      50.00000       0.04000       1.00000       0.50000       0.50000       1.00000       1.00000       1.00000      10.00000       0.50000  
hydcha0005                    null       2.67208       0.29812       0.05921       0.11046       0.05000       1.00000       0.50000       8.00000       8.96313       0.00100      12.00000      50.00000       0.04000       1.00000       0.50000       0.50000       1.00000       1.00000       1.00000      10.00000       0.50000  
hydcha0006                    null       0.47099       0.10429       0.02283       0.08850       0.05000       1.00000       0.50000       8.00000       4.51627       0.00100      12.00000      50.00000       0.04000       1.00000       0.50000       0.50000       1.00000       1.00000       1.00000      10.00000       0.50000  
hydcha0007                    null       0.00928       0.00969       0.02626       0.00875       0.05000       1.00000       0.50000       8.00000       0.95773       0.00100      12.00000      50.00000       0.04000       1.00000       0.50000       0.50000       1.00000       1.00000       1.00000      10.00000       0.50000  
hydcha0008                    null       2.76208       0.30416       0.00001       0.05531       0.05000       1.00000       0.50000       8.00000       9.08115       0.00100      12.00000      50.00000       0.04000       1.00000       0.50000       0.50000       1.00000       1.00000       1.00000      10.00000       0.50000  
hydcha0009                    null       0.35773       0.08830       0.00651       0.18585       0.05000       1.00000       0.50000       8.00000       4.05144       0.00100      12.00000      50.00000       0.04000       1.00000       0.50000       0.50000       1.00000       1.00000       1.00000      10.00000       0.50000  
hydcha0010                    null       0.45242       0.10178       0.00134       0.32118       0.05000       1.00000       0.50000       8.00000       4.44508       0.00100      12.00000      50.00000       0.04000       1.00000       0.50000       0.50000       1.00000       1.00000       1.00000      10.00000       0.50000  
hydcha0011                    null       0.52607       0.11151       0.00184       0.05446       0.05000       1.00000       0.50000       8.00000       4.71788       0.00100      12.00000      50.00000       0.04000       1.00000       0.50000       0.50000       1.00000       1.00000       1.00000      10.00000       0.50000  
hydcha0012                    null       9.09714       0.62567       0.00147       0.34714       0.05000       1.00000       0.50000       8.00000      14.53990       0.00100      12.00000      50.00000       0.04000       1.00000       0.50000       0.50000       1.00000       1.00000       1.00000      10.00000       0.50000  
hydcha0013                    null       0.36448       0.08930       0.00221       0.14928       0.05000       1.00000       0.50000       8.00000       4.08146       0.00100      12.00000      50.00000       0.04000       1.00000       0.50000       0.50000       1.00000       1.00000       1.00000      10.00000       0.50000  
hydcha0014                    null       3.42980       0.34673       0.00272       0.04388       0.05000       1.00000       0.50000       8.00000       9.89175       0.00100      12.00000      50.00000       0.04000       1.00000       0.50000       0.50000       1.00000       1.00000       1.00000      10.00000       0.50000  
hydcha0015                    null       3.42973       0.34673       0.00001       0.02330       0.05000       1.00000       0.50000       8.00000       9.89167       0.00100      12.00000      50.00000       0.04000       1.00000       0.50000       0.50000       1.00000       1.00000       1.00000      10.00000       0.50000  
hydcha0016                    null       0.18608       0.05945       0.00001       0.03277       0.05000       1.00000       0.50000       8.00000       3.12982       0.00100      12.00000      50.00000       0.04000       1.00000       0.50000       0.50000       1.00000       1.00000       1.00000      10.00000       0.50000  
hydcha0017                    null       3.42973       0.34673       0.00001       0.10351       0.05000       1.00000       0.50000       8.00000       9.89167       0.00100      12.00000      50.00000       0.04000       1.00000       0.50000       0.50000       1.00000       1.00000       1.00000      10.00000       0.50000  
hydcha0018                    null       0.00928       0.00969       0.00001       0.01099       0.05000       1.00000       0.50000       8.00000       0.95773       0.00100      12.00000      50.00000       0.04000       1.00000       0.50000       0.50000       1.00000       1.00000       1.00000      10.00000       0.50000  
hydcha0019                    null       2.65092       0.29669       0.02254       0.12068       0.05000       1.00000       0.50000       8.00000       8.93504       0.00100      12.00000      50.00000       0.04000       1.00000       0.50000       0.50000       1.00000       1.00000       1.00000      10.00000       0.50000  
hydcha0020                    null       3.43026       0.34676       0.01838       0.02011       0.05000       1.00000       0.50000       8.00000       9.89227       0.00100      12.00000      50.00000       0.04000       1.00000       0.50000       0.50000       1.00000       1.00000       1.00000      10.00000       0.50000  
hydcha0021                    null       0.31083       0.08110       0.01010       0.03167       0.05000       1.00000       0.50000       8.00000       3.83272       0.00100      12.00000      50.00000       0.04000       1.00000       0.50000       0.50000       1.00000       1.00000       1.00000      10.00000       0.50000  
hydcha0022                    null       3.43102       0.34681       0.00001       0.02905       0.05000       1.00000       0.50000       8.00000       9.89314       0.00100      12.00000      50.00000       0.04000       1.00000       0.50000       0.50000       1.00000       1.00000       1.00000      10.00000       0.50000  
hydcha0023                    null       1.56816       0.21594       0.01176       0.16159       0.05000       1.00000       0.50000       8.00000       7.26206       0.00100      12.00000      50.00000       0.04000       1.00000       0.50000       0.50000       1.00000       1.00000       1.00000      10.00000       0.50000  
hydcha0024                    null       3.50055       0.35104       0.00061       0.04921       0.05000       1.00000       0.50000       8.00000       9.97183       0.00100      12.00000      50.00000       0.04000       1.00000       0.50000       0.50000       1.00000       1.00000       1.00000      10.00000       0.50000  
hydcha0025                    null       3.50055       0.35104       0.00454       0.03961       0.05000       1.00000       0.50000       8.00000       9.97183       0.00100      12.00000      50.00000       0.04000       1.00000       0.50000       0.50000       1.00000       1.00000       1.00000      10.00000       0.50000  
hydcha0026                    null       1.49046       0.20940       0.00074       0.02714       0.05000       1.00000       0.50000       8.00000       7.11777       0.00100      12.00000      50.00000       0.04000       1.00000       0.50000       0.50000       1.00000       1.00000       1.00000      10.00000       0.50000  
hydcha0027                    null       2.03979       0.25318       0.00859       0.06289       0.05000       1.00000       0.50000       8.00000       8.05664       0.00100      12.00000      50.00000       0.04000       1.00000       0.50000       0.50000       1.00000       1.00000       1.00000      10.00000       0.50000  
hydcha0028                    null       1.04435       0.16885       0.04845       0.16409       0.05000       1.00000       0.50000       8.00000       6.18508       0.00100      12.00000      50.00000       0.04000       1.00000       0.50000       0.50000       1.00000       1.00000       1.00000      10.00000       0.50000  
hydcha0029                    null       0.22780       0.06720       0.00485       0.11348       0.05000       1.00000       0.50000       8.00000       3.39006       0.00100      12.00000      50.00000       0.04000       1.00000       0.50000       0.50000       1.00000       1.00000       1.00000      10.00000       0.50000  
hydcha0030                    null       7.87950       0.57356       0.00650       0.14618       0.05000       1.00000       0.50000       8.00000      13.73782       0.00100      12.00000      50.00000       0.04000       1.00000       0.50000       0.50000       1.00000       1.00000       1.00000      10.00000       0.50000  
hydcha0031                    null       1.75495       0.23116       0.00850       0.09053       0.05000       1.00000       0.50000       8.00000       7.59206       0.00100      12.00000      50.00000       0.04000       1.00000       0.50000       0.50000       1.00000       1.00000       1.00000      10.00000       0.50000  
hydcha0032                    null       2.88137       0.31204       0.00111       0.18901       0.05000       1.00000       0.50000       8.00000       9.23405       0.00100      12.00000      50.00000       0.04000       1.00000       0.50000       0.50000       1.00000       1.00000       1.00000      10.00000       0.50000  
hydcha0033                    null       0.34002       0.08563       0.04242       0.17116       0.05000       1.00000       0.50000       8.00000       3.97100       0.00100      12.00000      50.00000       0.04000       1.00000       0.50000       0.50000       1.00000       1.00000       1.00000      10.00000       0.50000  
hydcha0034                    null       3.80132       0.36900       0.00484       0.26050       0.05000       1.00000       0.50000       8.00000      10.30175       0.00100      12.00000      50.00000       0.04000       1.00000       0.50000       0.50000       1.00000       1.00000       1.00000      10.00000       0.50000  
hydcha0035                    null       2.61136       0.29400       0.00659       0.60658       0.05000       1.00000       0.50000       8.00000       8.88214       0.00100      12.00000      50.00000       0.04000       1.00000       0.50000       0.50000       1.00000       1.00000       1.00000      10.00000       0.50000  
hydcha0036                    null       0.52254       0.11105       0.01534       0.51889       0.05000       1.00000       0.50000       8.00000       4.70534       0.00100      12.00000      50.00000       0.04000       1.00000       0.50000       0.50000       1.00000       1.00000       1.00000      10.00000       0.50000  
hydcha0037                    null       3.28022       0.33750       0.00903       0.11070       0.05000       1.00000       0.50000       8.00000       9.71909       0.00100      12.00000      50.00000       0.04000       1.00000       0.50000       0.50000       1.00000       1.00000       1.00000      10.00000       0.50000  
hydcha0038                    null       2.46983       0.28425       0.00745       0.41088       0.05000       1.00000       0.50000       8.00000       8.68884       0.00100      12.00000      50.00000       0.04000       1.00000       0.50000       0.50000       1.00000       1.00000       1.00000      10.00000       0.50000  
hydcha0039                    null       3.01957       0.32101       0.00128       0.07048       0.05000       1.00000       0.50000       8.00000       9.40647       0.00100      12.00000      50.00000       0.04000       1.00000       0.50000       0.50000       1.00000       1.00000       1.00000      10.00000       0.50000  
hydcha0040                    null       0.91404       0.15577       0.02286       0.40336       0.05000       1.00000       0.50000       8.00000       5.86797       0.00100      12.00000      50.00000       0.04000       1.00000       0.50000       0.50000       1.00000       1.00000       1.00000      10.00000       0.50000  
hydcha0041                    null       2.36692       0.27703       0.00684       0.41930       0.05000       1.00000       0.50000       8.00000       8.54404       0.00100      12.00000      50.00000       0.04000       1.00000       0.50000       0.50000       1.00000       1.00000       1.00000      10.00000       0.50000  
hydcha0042                    null       3.88274       0.37376       0.00008       0.23802       0.05000       1.00000       0.50000       8.00000      10.38832       0.00100      12.00000      50.00000       0.04000       1.00000       0.50000       0.50000       1.00000       1.00000       1.00000      10.00000       0.50000  
hydcha0043                    null       0.00928       0.00969       0.00396       0.01262       0.05000       1.00000       0.50000       8.00000       0.95773       0.00100      12.00000      50.00000       0.04000       1.00000       0.50000       0.50000       1.00000       1.00000       1.00000      10.00000       0.50000  
hydcha0044                    null       0.20537       0.06311       0.00400       0.11244       0.05000       1.00000       0.50000       8.00000       3.25411       0.00100      12.00000      50.00000       0.04000       1.00000       0.50000       0.50000       1.00000       1.00000       1.00000      10.00000       0.50000  
hydcha0045                    null       0.18195       0.05865       0.00261       0.06887       0.05000       1.00000       0.50000       8.00000       3.10216       0.00100      12.00000      50.00000       0.04000       1.00000       0.50000       0.50000       1.00000       1.00000       1.00000      10.00000       0.50000  
hydcha0046                    null       0.78711       0.14229       0.00001       0.13448       0.05000       1.00000       0.50000       8.00000       5.53158       0.00100      12.00000      50.00000       0.04000       1.00000       0.50000       0.50000       1.00000       1.00000       1.00000      10.00000       0.50000  
hydcha0047                    null       1.04255       0.16867       0.00646       0.42880       0.05000       1.00000       0.50000       8.00000       6.18086       0.00100      12.00000      50.00000       0.04000       1.00000       0.50000       0.50000       1.00000       1.00000       1.00000      10.00000       0.50000  
hydcha0048                    null       2.63596       0.29567       0.03345       0.06816       0.05000       1.00000       0.50000       8.00000       8.91510       0.00100      12.00000      50.00000       0.04000       1.00000       0.50000       0.50000       1.00000       1.00000       1.00000      10.00000       0.50000  
hydcha0049                    null       0.20911       0.06380       0.00726       0.09911       0.05000       1.00000       0.50000       8.00000       3.27740       0.00100      12.00000      50.00000       0.04000       1.00000       0.50000       0.50000       1.00000       1.00000       1.00000      10.00000       0.50000  
hydcha0050                    null       6.88650       0.52867       0.02495       0.03447       0.05000       1.00000       0.50000       8.00000      13.02618       0.00100      12.00000      50.00000       0.04000       1.00000       0.50000       0.50000       1.00000       1.00000       1.00000      10.00000       0.50000  
hydcha0051                    null       0.86704       0.15087       0.05972       0.07133       0.05000       1.00000       0.50000       8.00000       5.74692       0.00100      12.00000      50.00000       0.04000       1.00000       0.50000       0.50000       1.00000       1.00000       1.00000      10.00000       0.50000  
hydcha0052                    null       9.36663       0.63682       0.00034       0.08712       0.05000       1.00000       0.50000       8.00000      14.70848       0.00100      12.00000      50.00000       0.04000       1.00000       0.50000       0.50000       1.00000       1.00000       1.00000      10.00000       0.50000  
hydcha0053                    null       4.04178       0.38295       0.00001       0.01832       0.05000       1.00000       0.50000       8.00000      10.55432       0.00100      12.00000      50.00000       0.04000       1.00000       0.50000       0.50000       1.00000       1.00000       1.00000      10.00000       0.50000  
hydcha0054                    null       2.64348       0.29618       0.00732       0.13804       0.05000       1.00000       0.50000       8.00000       8.92513       0.00100      12.00000      50.00000       0.04000       1.00000       0.50000       0.50000       1.00000       1.00000       1.00000      10.00000       0.50000  
hydcha0055                    null       1.82519       0.23671       0.00030       0.16599       0.05000       1.00000       0.50000       8.00000       7.71063       0.00100      12.00000      50.00000       0.04000       1.00000       0.50000       0.50000       1.00000       1.00000       1.00000      10.00000       0.50000  
hydcha0056                    null       4.03932       0.38281       0.00034       0.32449       0.05000       1.00000       0.50000       8.00000      10.55178       0.00100      12.00000      50.00000       0.04000       1.00000       0.50000       0.50000       1.00000       1.00000       1.00000      10.00000       0.50000  
hydcha0057                    null       0.87376       0.15158       0.03449       0.05305       0.05000       1.00000       0.50000       8.00000       5.76447       0.00100      12.00000      50.00000       0.04000       1.00000       0.50000       0.50000       1.00000       1.00000       1.00000      10.00000       0.50000  
hydcha0058                    null       0.62673       0.12397       0.00280       0.28963       0.05000       1.00000       0.50000       8.00000       5.05559       0.00100      12.00000      50.00000       0.04000       1.00000       0.50000       0.50000       1.00000       1.00000       1.00000      10.00000       0.50000  
hydcha0059                    null       9.09417       0.62554       0.00430       0.03020       0.05000       1.00000       0.50000       8.00000      14.53802       0.00100      12.00000      50.00000       0.04000       1.00000       0.50000       0.50000       1.00000       1.00000       1.00000      10.00000       0.50000  
hydcha0060                    null       0.83504       0.14748       0.09296       0.27507       0.05000       1.00000       0.50000       8.00000       5.66220       0.00100      12.00000      50.00000       0.04000       1.00000       0.50000       0.50000       1.00000       1.00000       1.00000      10.00000       0.50000  
hydcha0061                    null       0.11511       0.04446       0.00341       0.02928       0.05000       1.00000       0.50000       8.00000       2.58908       0.00100      12.00000      50.00000       0.04000       1.00000       0.50000       0.50000       1.00000       1.00000       1.00000      10.00000       0.50000  
hydcha0062                    null       0.26357       0.07340       0.00001       0.04642       0.05000       1.00000       0.50000       8.00000       3.59108       0.00100      12.00000      50.00000       0.04000       1.00000       0.50000       0.50000       1.00000       1.00000       1.00000      10.00000       0.50000  
hydcha0063                    null       1.18472       0.18224       0.02576       0.28684       0.05000       1.00000       0.50000       8.00000       6.50089       0.00100      12.00000      50.00000       0.04000       1.00000       0.50000       0.50000       1.00000       1.00000       1.00000      10.00000       0.50000  
hydcha0064                    null       0.48540       0.10621       0.02052       0.09113       0.05000       1.00000       0.50000       8.00000       4.57032       0.00100      12.00000      50.00000       0.04000       1.00000       0.50000       0.50000       1.00000       1.00000       1.00000      10.00000       0.50000  
hydcha0065                    null       0.71227       0.13395       0.05109       0.21472       0.05000       1.00000       0.50000       8.00000       5.31758       0.00100      12.00000      50.00000       0.04000       1.00000       0.50000       0.50000       1.00000       1.00000       1.00000      10.00000       0.50000  
hydcha0066                    null       3.80112       0.36899       0.00452       0.34082       0.05000       1.00000       0.50000       8.00000      10.30154       0.00100      12.00000      50.00000       0.04000       1.00000       0.50000       0.50000       1.00000       1.00000       1.00000      10.00000       0.50000  
hydcha0067                    null       0.55889       0.11566       0.05424       0.11265       0.05000       1.00000       0.50000       8.00000       4.83199       0.00100      12.00000      50.00000       0.04000       1.00000       0.50000       0.50000       1.00000       1.00000       1.00000      10.00000       0.50000  
hydcha0068                    null       3.49689       0.35082       0.00577       0.09358       0.05000       1.00000       0.50000       8.00000       9.96771       0.00100      12.00000      50.00000       0.04000       1.00000       0.50000       0.50000       1.00000       1.00000       1.00000      10.00000       0.50000  
hydcha0069                    null       0.79526       0.14318       0.04652       0.04923       0.05000       1.00000       0.50000       8.00000       5.55413       0.00100      12.00000      50.00000       0.04000       1.00000       0.50000       0.50000       1.00000       1.00000       1.00000      10.00000       0.50000  
hydcha0070                    null       1.32156       0.19470       0.00001       0.05318       0.05000       1.00000       0.50000       8.00000       6.78762       0.00100      12.00000      50.00000       0.04000       1.00000       0.50000       0.50000       1.00000       1.00000       1.00000      10.00000       0.50000  
hydcha0071                    null       3.27248       0.33702       0.00474       0.04854       0.05000       1.00000       0.50000       8.00000       9.71003       0.00100      12.00000      50.00000       0.04000       1.00000       0.50000       0.50000       1.00000       1.00000       1.00000      10.00000       0.50000  
hydcha0072                    null       0.64009       0.12556       0.01187       0.27643       0.05000       1.00000       0.50000       8.00000       5.09790       0.00100      12.00000      50.00000       0.04000       1.00000       0.50000       0.50000       1.00000       1.00000       1.00000      10.00000       0.50000  
hydcha0073                    null       1.65374       0.22300       0.05589       0.16802       0.05000       1.00000       0.50000       8.00000       7.41606       0.00100      12.00000      50.00000       0.04000       1.00000       0.50000       0.50000       1.00000       1.00000       1.00000      10.00000       0.50000  
hydcha0074                    null       3.89606       0.37454       0.00430       0.14429       0.05000       1.00000       0.50000       8.00000      10.40238       0.00100      12.00000      50.00000       0.04000       1.00000       0.50000       0.50000       1.00000       1.00000       1.00000      10.00000       0.50000  
hydcha0075                    null       0.72735       0.13566       0.00904       0.12057       0.05000       1.00000       0.50000       8.00000       5.36177       0.00100      12.00000      50.00000       0.04000       1.00000       0.50000       0.50000       1.00000       1.00000       1.00000      10.00000       0.50000  
hydcha0076                    null       0.22066       0.06591       0.00001       0.01678       0.05000       1.00000       0.50000       8.00000       3.34769       0.00100      12.00000      50.00000       0.04000       1.00000       0.50000       0.50000       1.00000       1.00000       1.00000      10.00000       0.50000  
hydcha0077                    null       2.64413       0.29623       0.01666       0.33553       0.05000       1.00000       0.50000       8.00000       8.92600       0.00100      12.00000      50.00000       0.04000       1.00000       0.50000       0.50000       1.00000       1.00000       1.00000      10.00000       0.50000  
hydcha0078                    null       0.42654       0.09822       0.03337       0.12824       0.05000       1.00000       0.50000       8.00000       4.34290       0.00100      12.00000      50.00000       0.04000       1.00000       0.50000       0.50000       1.00000       1.00000       1.00000      10.00000       0.50000  
hydcha0079                    null       2.10579       0.25811       0.02272       0.20727       0.05000       1.00000       0.50000       8.00000       8.15858       0.00100      12.00000      50.00000       0.04000       1.00000       0.50000       0.50000       1.00000       1.00000       1.00000      10.00000       0.50000  
hydcha0080                    null       1.19827       0.18350       0.09265       0.20388       0.05000       1.00000       0.50000       8.00000       6.53016       0.00100      12.00000      50.00000       0.04000       1.00000       0.50000       0.50000       1.00000       1.00000       1.00000      10.00000       0.50000  
hydcha0081                    null       4.03097       0.38233       0.00167       0.32992       0.05000       1.00000       0.50000       8.00000      10.54316       0.00100      12.00000      50.00000       0.04000       1.00000       0.50000       0.50000       1.00000       1.00000       1.00000      10.00000       0.50000  
hydcha0082                    null       0.00928       0.00969       0.00001       0.02800       0.05000       1.00000       0.50000       8.00000       0.95773       0.00100      12.00000      50.00000       0.04000       1.00000       0.50000       0.50000       1.00000       1.00000       1.00000      10.00000       0.50000  
hydcha0083                    null       2.64523       0.29630       0.00875       0.31418       0.05000       1.00000       0.50000       8.00000       8.92746       0.00100      12.00000      50.00000       0.04000       1.00000       0.50000       0.50000       1.00000       1.00000       1.00000      10.00000       0.50000  
hydcha0084                    null       0.51631       0.11025       0.00404       0.26015       0.05000       1.00000       0.50000       8.00000       4.68313       0.00100      12.00000      50.00000       0.04000       1.00000       0.50000       0.50000       1.00000       1.00000       1.00000      10.00000       0.50000  
hydcha0085                    null       0.88731       0.15299       0.00001       0.04878       0.05000       1.00000       0.50000       8.00000       5.79960       0.00100      12.00000      50.00000       0.04000       1.00000       0.50000       0.50000       1.00000       1.00000       1.00000      10.00000       0.50000  
hydcha0086                    null       0.62883       0.12422       0.00421       0.07106       0.05000       1.00000       0.50000       8.00000       5.06229       0.00100      12.00000      50.00000       0.04000       1.00000       0.50000       0.50000       1.00000       1.00000       1.00000      10.00000       0.50000  
hydcha0087                    null       6.42564       0.50697       0.00506       0.07121       0.05000       1.00000       0.50000       8.00000      12.67471       0.00100      12.00000      50.00000       0.04000       1.00000       0.50000       0.50000       1.00000       1.00000       1.00000      10.00000       0.50000  
hydcha0088                    null       1.76468       0.23193       0.01245       0.05622       0.05000       1.00000       0.50000       8.00000       7.60865       0.00100      12.00000      50.00000       0.04000       1.00000       0.50000       0.50000       1.00000       1.00000       1.00000      10.00000       0.50000  
hydcha0089                    null       6.19871       0.49605       0.00301       0.51769       0.05000       1.00000       0.50000       8.00000      12.49602       0.00100      12.00000      50.00000       0.04000       1.00000       0.50000       0.50000       1.00000       1.00000       1.00000      10.00000       0.50000  