ls_unit.def: written by SWAT+ editor v2.1.0 on 2023-02-24 18:07 for SWAT+ rev.60.5.4
5292
      id              name          area  elem_tot  elements  
       1           rtu0001       0.14805         1         1  
       2           rtu0002       1.10912         1         2  
       3           rtu0003       0.08362         1         3  
       4           rtu0004      12.61525         1         4  
       5           rtu0005       0.01952         1         5  
       6           rtu0006       0.48901         1         6  
       7           rtu0007       0.15975         1         7  
       8           rtu0008       9.83038         1         8  
       9           rtu0009       0.16520         1         9  
      10           rtu0010       0.18172         1        10  
      11           rtu0011       0.94336         1        11  
      12           rtu0012       0.77233         1        12  
      13           rtu0013       0.61567         1        13  
      14           rtu0014       4.05884         1        14  
      15           rtu0015       0.46511         1        15  
      16           rtu0016      10.84412         1        16  
      17           rtu0017      11.45282         1        17  
      18           rtu0018       0.96884         1        18  
      19           rtu0019       8.60653         1        19  
      20           rtu0020       9.21283         1        20  
      21           rtu0021       8.08788         1        21  
      22           rtu0022       2.25320         1        22  
      23           rtu0023       7.29266         1        23  
      24           rtu0024       4.39547         1        24  
      25           rtu0025       7.77059         1        25  
      26           rtu0026       0.20399         1        26  
      27           rtu0027      16.58280         1        27  
      28           rtu0028       5.60191         1        28  
      29           rtu0029       0.84844         1        29  
      30           rtu0030       9.01554         1        30  
      31           rtu0031       0.05589         1        31  
      32           rtu0032       0.32020         1        32  
      33           rtu0033       3.76731         1        33  
      34           rtu0034      13.46635         1        34  
      35           rtu0035       1.96569         1        35  
      36           rtu0036       0.28623         1        36  
      37           rtu0037      50.07103         1        37  
      38           rtu0038       2.13203         1        38  
      39           rtu0039      10.71480         1        39  
      40           rtu0040       4.33461         1        40  
      41           rtu0041       0.95789         1        41  
      42           rtu0042       8.92727         1        42  
      43           rtu0043      17.03292         1        43  
      44           rtu0044      29.11012         1        44  
      45           rtu0045       1.10246         1        45  
      46           rtu0046       9.12550         1        46  
      47           rtu0047       1.01345         1        47  
      48           rtu0048      10.02017         1        48  
      49           rtu0049       1.37434         1        49  
      50           rtu0050      15.98818         1        50  
      51           rtu0051       9.67945         1        51  
      52           rtu0052       6.42549         1        52  
      53           rtu0053      16.26502         1        53  
      54           rtu0054       6.56167         1        54  
      55           rtu0055       0.58472         1        55  
      56           rtu0056       1.73094         1        56  
      57           rtu0057       1.43181         1        57  
      58           rtu0058       4.11825         1        58  
      59           rtu0059      12.50092         1        59  
      60           rtu0060       2.98246         1        60  
      61           rtu0061       0.60666         1        61  
      62           rtu0062       0.23631         1        62  
      63           rtu0063       5.36034         1        63  
      64           rtu0064       2.39809         1        64  
      65           rtu0065      15.21359         1        65  
      66           rtu0066       3.42373         1        66  
      67           rtu0067       3.40036         1        67  
      68           rtu0068       3.11465         1        68  
      69           rtu0069       3.44912         1        69  
      70           rtu0070       7.82876         1        70  
      71           rtu0071      12.61515         1        71  
      72           rtu0072       0.93794         1        72  
      73           rtu0073       9.33114         1        73  
      74           rtu0074       0.05523         1        74  
      75           rtu0075       1.11106         1        75  
      76           rtu0076       0.05887         1        76  
      77           rtu0077       7.73204         1        77  
      78           rtu0078      17.86040         1        78  
      79           rtu0079       9.33889         1        79  
      80           rtu0080       2.89976         1        80  
      81           rtu0081      14.58382         1        81  
      82           rtu0082       4.53548         1        82  
      83           rtu0083       0.21089         1        83  
      84           rtu0084       9.58574         1        84  
      85           rtu0085       0.61249         1        85  
      86           rtu0086       9.40759         1        86  
      87           rtu0087       0.86904         1        87  
      88           rtu0088       7.38496         1        88  
      89           rtu0089      14.84138         1        89  
      90           rtu0090       4.29562         1        90  
      91           rtu0091       1.28724         1        91  
      92           rtu0092       1.54303         1        92  
      93           rtu0093       0.53839         1        93  
      94           rtu0094       0.36637         1        94  
      95           rtu0095       5.26526         1        95  
      96           rtu0096       0.68329         1        96  
      97           rtu0097      13.29926         1        97  
      98           rtu0098       3.62970         1        98  
      99           rtu0099       0.34779         1        99  
     100           rtu0100       1.21258         1       100  
     101           rtu0101       2.40455         1       101  
     102           rtu0102       5.94839         1       102  
     103           rtu0103       2.95685         1       103  
     104           rtu0104      12.88875         1       104  
     105           rtu0105       4.27830         1       105  
     106           rtu0106       0.62257         1       106  
     107           rtu0107       6.87326         1       107  
     108           rtu0108       0.90625         1       108  
     109           rtu0109       2.47882         1       109  
     110           rtu0110       0.15618         1       110  
     111           rtu0111       1.49109         1       111  
     112           rtu0112       0.97149         1       112  
     113           rtu0113       0.72994         1       113  
     114           rtu0114       0.58554         1       114  
     115           rtu0115       0.04896         1       115  
     116           rtu0116       0.03648         1       116  
     117           rtu0117       0.50570         1       117  
     118           rtu0118       1.05292         1       118  
     119           rtu0119      19.92208         1       119  
     120           rtu0120       0.09346         1       120  
     121           rtu0121      31.10518         1       121  
     122           rtu0122       0.08919         1       122  
     123           rtu0123       0.04572         1       123  
     124           rtu0124       1.24179         1       124  
     125           rtu0125       8.72928         1       125  
     126           rtu0126       0.27999         1       126  
     127           rtu0127       0.61281         1       127  
     128           rtu0128      34.80341         1       128  
     129           rtu0129       6.65877         1       129  
     130           rtu0130       3.76059         1       130  
     131           rtu0131       0.97439         1       131  
     132           rtu0132       0.66610         1       132  
     133           rtu0133       1.88634         1       133  
     134           rtu0134      10.09232         1       134  
     135           rtu0135       1.06560         1       135  
     136           rtu0136       3.35484         1       136  
     137           rtu0137      21.44905         1       137  
     138           rtu0138      30.34572         1       138  
     139           rtu0139       0.65694         1       139  
     140           rtu0140       0.14590         1       140  
     141           rtu0141       0.54082         1       141  
     142           rtu0142       0.32389         1       142  
     143           rtu0143       3.09840         1       143  
     144           rtu0144       7.12207         1       144  
     145           rtu0145      23.84791         1       145  
     146           rtu0146       2.31219         1       146  
     147           rtu0147       0.26134         1       147  
     148           rtu0148       3.46992         1       148  
     149           rtu0149      22.09895         1       149  
     150           rtu0150       7.84434         1       150  
     151           rtu0151       2.37818         1       151  
     152           rtu0152       0.60906         1       152  
     153           rtu0153       0.04388         1       153  
     154           rtu0154       0.51608         1       154  
     155           rtu0155       1.48573         1       155  
     156           rtu0156       9.57025         1       156  
     157           rtu0157       9.40367         1       157  
     158           rtu0158       1.70420         1       158  
     159           rtu0159      10.21276         1       159  
     160           rtu0160       1.06901         1       160  
     161           rtu0161       2.86624         1       161  
     162           rtu0162       5.24327         1       162  
     163           rtu0163       0.47046         1       163  
     164           rtu0164       0.18060         1       164  
     165           rtu0165       0.63717         1       165  
     166           rtu0166       6.37988         1       166  
     167           rtu0167       0.97462         1       167  
     168           rtu0168       0.02303         1       168  
     169           rtu0169       2.09740         1       169  
     170           rtu0170       6.89703         1       170  
     171           rtu0171       0.33933         1       171  
     172           rtu0172      19.10756         1       172  
     173           rtu0173      11.24850         1       173  
     174           rtu0174      16.33901         1       174  
     175           rtu0175       0.66632         1       175  
     176           rtu0176       5.06476         1       176  
     177           rtu0177       0.56757         1       177  
     178           rtu0178      10.09732         1       178  
     179           rtu0179       1.85867         1       179  
     180           rtu0180       4.38444         1       180  
     181           rtu0181       1.63643         1       181  
     182           rtu0182       2.47397         1       182  
     183           rtu0183       4.45915         1       183  
     184           rtu0184       0.17183         1       184  
     185           rtu0185       0.73643         1       185  
     186           rtu0186      14.95898         1       186  
     187           rtu0187       5.09327         1       187  
     188           rtu0188       9.68655         1       188  
     189           rtu0189       0.46462         1       189  
     190           rtu0190       0.86521         1       190  
     191           rtu0191       1.82310         1       191  
     192           rtu0192       1.40713         1       192  
     193           rtu0193       0.25982         1       193  
     194           rtu0194       0.57894         1       194  
     195           rtu0195       0.53670         1       195  
     196           rtu0196      11.46981         1       196  
     197           rtu0197       0.69880         1       197  
     198           rtu0198      41.45687         1       198  
     199           rtu0199       3.94691         1       199  
     200           rtu0200       2.61186         1       200  
     201           rtu0201       0.07422         1       201  
     202           rtu0202      15.13436         1       202  
     203           rtu0203       5.02136         1       203  
     204           rtu0204       6.01529         1       204  
     205           rtu0205       0.26835         1       205  
     206           rtu0206       0.22834         1       206  
     207           rtu0207       1.33551         1       207  
     208           rtu0208       3.52616         1       208  
     209           rtu0209       0.76814         1       209  
     210           rtu0210      18.68030         1       210  
     211           rtu0211       0.57413         1       211  
     212           rtu0212       1.64916         1       212  
     213           rtu0213       2.31745         1       213  
     214           rtu0214       0.09853         1       214  
     215           rtu0215       0.33002         1       215  
     216           rtu0216       0.67877         1       216  
     217           rtu0217       2.52847         1       217  
     218           rtu0218       1.69056         1       218  
     219           rtu0219       0.90441         1       219  
     220           rtu0220      13.57987         1       220  
     221           rtu0221       0.30447         1       221  
     222           rtu0222       0.34372         1       222  
     223           rtu0223      17.75948         1       223  
     224           rtu0224       3.38652         1       224  
     225           rtu0225       6.58834         1       225  
     226           rtu0226       0.31737         1       226  
     227           rtu0227       2.54963         1       227  
     228           rtu0228       0.14878         1       228  
     229           rtu0229      13.56230         1       229  
     230           rtu0230       6.92667         1       230  
     231           rtu0231      16.77420         1       231  
     232           rtu0232       0.60734         1       232  
     233           rtu0233       1.07041         1       233  
     234           rtu0234       0.08788         1       234  
     235           rtu0235       0.16256         1       235  
     236           rtu0236       2.11395         1       236  
     237           rtu0237       2.22777         1       237  
     238           rtu0238       8.61674         1       238  
     239           rtu0239       0.07906         1       239  
     240           rtu0240       2.13399         1       240  
     241           rtu0241       2.29100         1       241  
     242           rtu0242       0.51506         1       242  
     243           rtu0243       5.04494         1       243  
     244           rtu0244      29.85256         1       244  
     245           rtu0245      28.10802         1       245  
     246           rtu0246      11.99596         1       246  
     247           rtu0247       1.08025         1       247  
     248           rtu0248      13.62769         1       248  
     249           rtu0249      11.98985         1       249  
     250           rtu0250       1.20844         1       250  
     251           rtu0251      36.82435         1       251  
     252           rtu0252       1.13001         1       252  
     253           rtu0253       5.21740         1       253  
     254           rtu0254       7.54274         1       254  
     255           rtu0255      12.57674         1       255  
     256           rtu0256      10.67332         1       256  
     257           rtu0257       0.77226         1       257  
     258           rtu0258       2.23110         1       258  
     259           rtu0259       0.98883         1       259  
     260           rtu0260       4.35230         1       260  
     261           rtu0261      21.58983         1       261  
     262           rtu0262       0.53844         1       262  
     263           rtu0263      10.86307         1       263  
     264           rtu0264       0.87213         1       264  
     265           rtu0265       9.81118         1       265  
     266           rtu0266       7.45336         1       266  
     267           rtu0267       3.42778         1       267  
     268           rtu0268      20.36778         1       268  
     269           rtu0269       0.33699         1       269  
     270           rtu0270       0.06604         1       270  
     271           rtu0271       0.42779         1       271  
     272           rtu0272      10.20797         1       272  
     273           rtu0273       0.83595         1       273  
     274           rtu0274       9.33866         1       274  
     275           rtu0275      14.96306         1       275  
     276           rtu0276      16.40554         1       276  
     277           rtu0277       0.69711         1       277  
     278           rtu0278       0.22934         1       278  
     279           rtu0279      24.79533         1       279  
     280           rtu0280       0.14287         1       280  
     281           rtu0281       0.20628         1       281  
     282           rtu0282      29.12636         1       282  
     283           rtu0283      51.26825         1       283  
     284           rtu0284       0.22442         1       284  
     285           rtu0285      29.69606         1       285  
     286           rtu0286       1.95528         1       286  
     287           rtu0287       0.05159         1       287  
     288           rtu0288      21.90859         1       288  
     289           rtu0289       0.32818         1       289  
     290           rtu0290       1.74994         1       290  
     291           rtu0291      14.18505         1       291  
     292           rtu0292       0.20770         1       292  
     293           rtu0293      62.85568         1       293  
     294           rtu0294       2.55906         1       294  
     295           rtu0295       1.01666         1       295  
     296           rtu0296       2.69477         1       296  
     297           rtu0297       6.25031         1       297  
     298           rtu0298       4.15158         1       298  
     299           rtu0299      36.39998         1       299  
     300           rtu0300      23.11602         1       300  
     301           rtu0301       6.09208         1       301  
     302           rtu0302       3.38325         1       302  
     303           rtu0303      10.98655         1       303  
     304           rtu0304       1.43738         1       304  
     305           rtu0305       3.94439         1       305  
     306           rtu0306      12.57448         1       306  
     307           rtu0307       3.66515         1       307  
     308           rtu0308      17.37356         1       308  
     309           rtu0309       3.95820         1       309  
     310           rtu0310       0.48387         1       310  
     311           rtu0311       0.23421         1       311  
     312           rtu0312       0.11767         1       312  
     313           rtu0313       0.99471         1       313  
     314           rtu0314       1.30649         1       314  
     315           rtu0315      10.49404         1       315  
     316           rtu0316       0.84842         1       316  
     317           rtu0317      14.95628         1       317  
     318           rtu0318       7.08715         1       318  
     319           rtu0319       0.44443         1       319  
     320           rtu0320      10.15230         1       320  
     321           rtu0321       1.71385         1       321  
     322           rtu0322      13.96586         1       322  
     323           rtu0323      16.11277         1       323  
     324           rtu0324       5.51313         1       324  
     325           rtu0325       3.45124         1       325  
     326           rtu0326      10.07603         1       326  
     327           rtu0327       1.81972         1       327  
     328           rtu0328      23.29858         1       328  
     329           rtu0329       6.89631         1       329  
     330           rtu0330       8.14045         1       330  
     331           rtu0331       4.66123         1       331  
     332           rtu0332       3.32778         1       332  
     333           rtu0333       0.34921         1       333  
     334           rtu0334       0.64811         1       334  
     335           rtu0335       0.24028         1       335  
     336           rtu0336      44.45821         1       336  
     337           rtu0337       1.62959         1       337  
     338           rtu0338       3.05739         1       338  
     339           rtu0339       0.15254         1       339  
     340           rtu0340       0.84207         1       340  
     341           rtu0341      16.70611         1       341  
     342           rtu0342       4.97902         1       342  
     343           rtu0343       0.38521         1       343  
     344           rtu0344       4.23855         1       344  
     345           rtu0345       3.94068         1       345  
     346           rtu0346       5.74679         1       346  
     347           rtu0347       5.36382         1       347  
     348           rtu0348       7.17689         1       348  
     349           rtu0349      23.12456         1       349  
     350           rtu0350       0.21820         1       350  
     351           rtu0351       1.19741         1       351  
     352           rtu0352       1.61259         1       352  
     353           rtu0353      23.66911         1       353  
     354           rtu0354       1.48889         1       354  
     355           rtu0355       8.90638         1       355  
     356           rtu0356      10.12527         1       356  
     357           rtu0357       4.53369         1       357  
     358           rtu0358       0.77988         1       358  
     359           rtu0359       0.70247         1       359  
     360           rtu0360       2.38678         1       360  
     361           rtu0361       1.65060         1       361  
     362           rtu0362      12.94310         1       362  
     363           rtu0363       0.94736         1       363  
     364           rtu0364       2.42466         1       364  
     365           rtu0365       3.54009         1       365  
     366           rtu0366       5.07206         1       366  
     367           rtu0367       2.73803         1       367  
     368           rtu0368       5.23998         1       368  
     369           rtu0369      22.87566         1       369  
     370           rtu0370       3.38628         1       370  
     371           rtu0371       1.19822         1       371  
     372           rtu0372       0.33236         1       372  
     373           rtu0373      38.65837         1       373  
     374           rtu0374       1.25398         1       374  
     375           rtu0375       0.85285         1       375  
     376           rtu0376      18.02192         1       376  
     377           rtu0377       0.52465         1       377  
     378           rtu0378      17.03343         1       378  
     379           rtu0379       3.76871         1       379  
     380           rtu0380       3.24738         1       380  
     381           rtu0381       2.64044         1       381  
     382           rtu0382       0.34252         1       382  
     383           rtu0383      13.19038         1       383  
     384           rtu0384       0.88923         1       384  
     385           rtu0385      17.36136         1       385  
     386           rtu0386       1.31860         1       386  
     387           rtu0387       2.37942         1       387  
     388           rtu0388       8.65125         1       388  
     389           rtu0389       2.80567         1       389  
     390           rtu0390       1.05297         1       390  
     391           rtu0391       2.08290         1       391  
     392           rtu0392       5.32165         1       392  
     393           rtu0393       5.08151         1       393  
     394           rtu0394       2.22191         1       394  
     395           rtu0395       6.51876         1       395  
     396           rtu0396       7.86804         1       396  
     397           rtu0397      11.87946         1       397  
     398           rtu0398      19.48762         1       398  
     399           rtu0399       8.35968         1       399  
     400           rtu0400       3.83476         1       400  
     401           rtu0401       0.40053         1       401  
     402           rtu0402       3.55289         1       402  
     403           rtu0403       6.75696         1       403  
     404           rtu0404       1.66324         1       404  
     405           rtu0405       3.93381         1       405  
     406           rtu0406       4.65233         1       406  
     407           rtu0407       1.93110         1       407  
     408           rtu0408       4.60361         1       408  
     409           rtu0409       0.47292         1       409  
     410           rtu0410       0.28338         1       410  
     411           rtu0411       2.62107         1       411  
     412           rtu0412       5.10634         1       412  
     413           rtu0413       3.29659         1       413  
     414           rtu0414       2.04636         1       414  
     415           rtu0415      16.64162         1       415  
     416           rtu0416       3.87478         1       416  
     417           rtu0417       3.45395         1       417  
     418           rtu0418       4.45622         1       418  
     419           rtu0419       3.94681         1       419  
     420           rtu0420       2.72409         1       420  
     421           rtu0421       8.05016         1       421  
     422           rtu0422      10.01633         1       422  
     423           rtu0423       1.07195         1       423  
     424           rtu0424      21.12144         1       424  
     425           rtu0425       6.15921         1       425  
     426           rtu0426       1.40511         1       426  
     427           rtu0427       0.71234         1       427  
     428           rtu0428       9.58478         1       428  
     429           rtu0429      28.97194         1       429  
     430           rtu0430       1.37226         1       430  
     431           rtu0431       5.29604         1       431  
     432           rtu0432      35.14441         1       432  
     433           rtu0433      10.42412         1       433  
     434           rtu0434       4.70983         1       434  
     435           rtu0435       6.80399         1       435  
     436           rtu0436      31.83235         1       436  
     437           rtu0437      10.29170         1       437  
     438           rtu0438       8.36935         1       438  
     439           rtu0439       0.25930         1       439  
     440           rtu0440       0.32648         1       440  
     441           rtu0441      12.21711         1       441  
     442           rtu0442       9.55040         1       442  
     443           rtu0443       0.78627         1       443  
     444           rtu0444       2.86999         1       444  
     445           rtu0445       1.59681         1       445  
     446           rtu0446       4.08471         1       446  
     447           rtu0447       5.18664         1       447  
     448           rtu0448       3.41692         1       448  
     449           rtu0449       3.78908         1       449  
     450           rtu0450       2.21874         1       450  
     451           rtu0451       0.18939         1       451  
     452           rtu0452       2.94295         1       452  
     453           rtu0453      19.60848         1       453  
     454           rtu0454      11.89423         1       454  
     455           rtu0455       0.73214         1       455  
     456           rtu0456       0.96547         1       456  
     457           rtu0457       0.22920         1       457  
     458           rtu0458       7.49055         1       458  
     459           rtu0459       1.25166         1       459  
     460           rtu0460       6.04967         1       460  
     461           rtu0461       3.44346         1       461  
     462           rtu0462       2.20620         1       462  
     463           rtu0463       5.64372         1       463  
     464           rtu0464       1.31302         1       464  
     465           rtu0465       7.68612         1       465  
     466           rtu0466       0.65043         1       466  
     467           rtu0467       6.60020         1       467  
     468           rtu0468       0.38069         1       468  
     469           rtu0469      46.75546         1       469  
     470           rtu0470       0.32355         1       470  
     471           rtu0471      13.03293         1       471  
     472           rtu0472       0.44975         1       472  
     473           rtu0473       0.28697         1       473  