ls_unit.ele: written by SWAT+ editor v2.1.0 on 2023-02-24 18:07 for SWAT+ rev.60.5.4
      id  name                   obj_typ  obj_typ_no      bsn_frac      sub_frac      reg_frac  
       1  hru0001                    hru           1     1.0900E-5       1.00000       0.00000  
       2  hru0002                    hru           2     8.1657E-5       1.00000       0.00000  
       3  hru0003                    hru           3     6.1564E-6       1.00000       0.00000  
       4  hru0004                    hru           4     9.2878E-4       1.00000       0.00000  
       5  hru0005                    hru           5     1.4369E-6       1.00000       0.00000  
       6  hru0006                    hru           6     3.6003E-5       1.00000       0.00000  
       7  hru0007                    hru           7     1.1762E-5       1.00000       0.00000  
       8  hru0008                    hru           8     7.2375E-4       1.00000       0.00000  
       9  hru0009                    hru           9     1.2163E-5       1.00000       0.00000  
      10  hru0010                    hru          10     1.3379E-5       1.00000       0.00000  
      11  hru0011                    hru          11     6.9454E-5       1.00000       0.00000  
      12  hru0012                    hru          12     5.6862E-5       1.00000       0.00000  
      13  hru0013                    hru          13     4.5328E-5       1.00000       0.00000  
      14  hru0014                    hru          14     2.9883E-4       1.00000       0.00000  
      15  hru0015                    hru          15     3.4243E-5       1.00000       0.00000  
      16  hru0016                    hru          16     7.9838E-4       1.00000       0.00000  
      17  hru0017                    hru          17     8.4320E-4       1.00000       0.00000  
      18  hru0018                    hru          18     7.1329E-5       1.00000       0.00000  
      19  hru0019                    hru          19     6.3365E-4       1.00000       0.00000  
      20  hru0020                    hru          20     6.7828E-4       1.00000       0.00000  
      21  hru0021                    hru          21     5.9546E-4       1.00000       0.00000  
      22  hru0022                    hru          22     1.6589E-4       1.00000       0.00000  
      23  hru0023                    hru          23     5.3691E-4       1.00000       0.00000  
      24  hru0024                    hru          24     3.2361E-4       1.00000       0.00000  
      25  hru0025                    hru          25     5.7210E-4       1.00000       0.00000  
      26  hru0026                    hru          26     1.5018E-5       1.00000       0.00000  
      27  hru0027                    hru          27     1.2209E-3       1.00000       0.00000  
      28  hru0028                    hru          28     4.1243E-4       1.00000       0.00000  
      29  hru0029                    hru          29     6.2465E-5       1.00000       0.00000  
      30  hru0030                    hru          30     6.6376E-4       1.00000       0.00000  
      31  hru0031                    hru          31     4.1147E-6       1.00000       0.00000  
      32  hru0032                    hru          32     2.3574E-5       1.00000       0.00000  
      33  hru0033                    hru          33     2.7736E-4       1.00000       0.00000  
      34  hru0034                    hru          34     9.9144E-4       1.00000       0.00000  
      35  hru0035                    hru          35     1.4472E-4       1.00000       0.00000  
      36  hru0036                    hru          36     2.1074E-5       1.00000       0.00000  
      37  hru0037                    hru          37     3.6864E-3       1.00000       0.00000  
      38  hru0038                    hru          38     1.5697E-4       1.00000       0.00000  
      39  hru0039                    hru          39     7.8886E-4       1.00000       0.00000  
      40  hru0040                    hru          40     3.1913E-4       1.00000       0.00000  
      41  hru0041                    hru          41     7.0524E-5       1.00000       0.00000  
      42  hru0042                    hru          42     6.5726E-4       1.00000       0.00000  
      43  hru0043                    hru          43     1.2540E-3       1.00000       0.00000  
      44  hru0044                    hru          44     2.1432E-3       1.00000       0.00000  
      45  hru0045                    hru          45     8.1168E-5       1.00000       0.00000  
      46  hru0046                    hru          46     6.7185E-4       1.00000       0.00000  
      47  hru0047                    hru          47     7.4614E-5       1.00000       0.00000  
      48  hru0048                    hru          48     7.3772E-4       1.00000       0.00000  
      49  hru0049                    hru          49     1.0118E-4       1.00000       0.00000  
      50  hru0050                    hru          50     1.1771E-3       1.00000       0.00000  
      51  hru0051                    hru          51     7.1264E-4       1.00000       0.00000  
      52  hru0052                    hru          52     4.7307E-4       1.00000       0.00000  
      53  hru0053                    hru          53     1.1975E-3       1.00000       0.00000  
      54  hru0054                    hru          54     4.8309E-4       1.00000       0.00000  
      55  hru0055                    hru          55     4.3049E-5       1.00000       0.00000  
      56  hru0056                    hru          56     1.2744E-4       1.00000       0.00000  
      57  hru0057                    hru          57     1.0542E-4       1.00000       0.00000  
      58  hru0058                    hru          58     3.0320E-4       1.00000       0.00000  
      59  hru0059                    hru          59     9.2036E-4       1.00000       0.00000  
      60  hru0060                    hru          60     2.1958E-4       1.00000       0.00000  
      61  hru0061                    hru          61     4.4665E-5       1.00000       0.00000  
      62  hru0062                    hru          62     1.7398E-5       1.00000       0.00000  
      63  hru0063                    hru          63     3.9465E-4       1.00000       0.00000  
      64  hru0064                    hru          64     1.7656E-4       1.00000       0.00000  
      65  hru0065                    hru          65     1.1201E-3       1.00000       0.00000  
      66  hru0066                    hru          66     2.5207E-4       1.00000       0.00000  
      67  hru0067                    hru          67     2.5035E-4       1.00000       0.00000  
      68  hru0068                    hru          68     2.2931E-4       1.00000       0.00000  
      69  hru0069                    hru          69     2.5394E-4       1.00000       0.00000  
      70  hru0070                    hru          70     5.7638E-4       1.00000       0.00000  
      71  hru0071                    hru          71     9.2877E-4       1.00000       0.00000  
      72  hru0072                    hru          72     6.9055E-5       1.00000       0.00000  
      73  hru0073                    hru          73     6.8699E-4       1.00000       0.00000  
      74  hru0074                    hru          74     4.0665E-6       1.00000       0.00000  
      75  hru0075                    hru          75     8.1801E-5       1.00000       0.00000  
      76  hru0076                    hru          76     4.3340E-6       1.00000       0.00000  
      77  hru0077                    hru          77     5.6926E-4       1.00000       0.00000  
      78  hru0078                    hru          78     1.3149E-3       1.00000       0.00000  
      79  hru0079                    hru          79     6.8756E-4       1.00000       0.00000  
      80  hru0080                    hru          80     2.1349E-4       1.00000       0.00000  
      81  hru0081                    hru          81     1.0737E-3       1.00000       0.00000  
      82  hru0082                    hru          82     3.3392E-4       1.00000       0.00000  
      83  hru0083                    hru          83     1.5527E-5       1.00000       0.00000  
      84  hru0084                    hru          84     7.0574E-4       1.00000       0.00000  
      85  hru0085                    hru          85     4.5094E-5       1.00000       0.00000  
      86  hru0086                    hru          86     6.9262E-4       1.00000       0.00000  
      87  hru0087                    hru          87     6.3982E-5       1.00000       0.00000  
      88  hru0088                    hru          88     5.4371E-4       1.00000       0.00000  
      89  hru0089                    hru          89     1.0927E-3       1.00000       0.00000  
      90  hru0090                    hru          90     3.1626E-4       1.00000       0.00000  
      91  hru0091                    hru          91     9.4772E-5       1.00000       0.00000  
      92  hru0092                    hru          92     1.1360E-4       1.00000       0.00000  
      93  hru0093                    hru          93     3.9638E-5       1.00000       0.00000  
      94  hru0094                    hru          94     2.6973E-5       1.00000       0.00000  
      95  hru0095                    hru          95     3.8765E-4       1.00000       0.00000  
      96  hru0096                    hru          96     5.0306E-5       1.00000       0.00000  
      97  hru0097                    hru          97     9.7914E-4       1.00000       0.00000  
      98  hru0098                    hru          98     2.6723E-4       1.00000       0.00000  
      99  hru0099                    hru          99     2.5605E-5       1.00000       0.00000  
     100  hru0100                    hru         100     8.9275E-5       1.00000       0.00000  
     101  hru0101                    hru         101     1.7703E-4       1.00000       0.00000  
     102  hru0102                    hru         102     4.3794E-4       1.00000       0.00000  
     103  hru0103                    hru         103     2.1769E-4       1.00000       0.00000  
     104  hru0104                    hru         104     9.4892E-4       1.00000       0.00000  
     105  hru0105                    hru         105     3.1498E-4       1.00000       0.00000  
     106  hru0106                    hru         106     4.5836E-5       1.00000       0.00000  
     107  hru0107                    hru         107     5.0604E-4       1.00000       0.00000  
     108  hru0108                    hru         108     6.6722E-5       1.00000       0.00000  
     109  hru0109                    hru         109     1.8250E-4       1.00000       0.00000  
     110  hru0110                    hru         110     1.1498E-5       1.00000       0.00000  
     111  hru0111                    hru         111     1.0978E-4       1.00000       0.00000  
     112  hru0112                    hru         112     7.1525E-5       1.00000       0.00000  
     113  hru0113                    hru         113     5.3741E-5       1.00000       0.00000  
     114  hru0114                    hru         114     4.3110E-5       1.00000       0.00000  
     115  hru0115                    hru         115     3.6050E-6       1.00000       0.00000  
     116  hru0116                    hru         116     2.6857E-6       1.00000       0.00000  
     117  hru0117                    hru         117     3.7231E-5       1.00000       0.00000  
     118  hru0118                    hru         118     7.7520E-5       1.00000       0.00000  
     119  hru0119                    hru         119     1.4667E-3       1.00000       0.00000  
     120  hru0120                    hru         120     6.8806E-6       1.00000       0.00000  
     121  hru0121                    hru         121     2.2901E-3       1.00000       0.00000  
     122  hru0122                    hru         122     6.5667E-6       1.00000       0.00000  
     123  hru0123                    hru         123     3.3659E-6       1.00000       0.00000  
     124  hru0124                    hru         124     9.1425E-5       1.00000       0.00000  
     125  hru0125                    hru         125     6.4268E-4       1.00000       0.00000  
     126  hru0126                    hru         126     2.0614E-5       1.00000       0.00000  
     127  hru0127                    hru         127     4.5117E-5       1.00000       0.00000  
     128  hru0128                    hru         128     2.5624E-3       1.00000       0.00000  
     129  hru0129                    hru         129     4.9024E-4       1.00000       0.00000  
     130  hru0130                    hru         130     2.7687E-4       1.00000       0.00000  
     131  hru0131                    hru         131     7.1738E-5       1.00000       0.00000  
     132  hru0132                    hru         132     4.9041E-5       1.00000       0.00000  
     133  hru0133                    hru         133     1.3888E-4       1.00000       0.00000  
     134  hru0134                    hru         134     7.4303E-4       1.00000       0.00000  
     135  hru0135                    hru         135     7.8453E-5       1.00000       0.00000  
     136  hru0136                    hru         136     2.4700E-4       1.00000       0.00000  
     137  hru0137                    hru         137     1.5792E-3       1.00000       0.00000  
     138  hru0138                    hru         138     2.2342E-3       1.00000       0.00000  
     139  hru0139                    hru         139     4.8367E-5       1.00000       0.00000  
     140  hru0140                    hru         140     1.0742E-5       1.00000       0.00000  
     141  hru0141                    hru         141     3.9817E-5       1.00000       0.00000  
     142  hru0142                    hru         142     2.3846E-5       1.00000       0.00000  
     143  hru0143                    hru         143     2.2812E-4       1.00000       0.00000  
     144  hru0144                    hru         144     5.2435E-4       1.00000       0.00000  
     145  hru0145                    hru         145     1.7558E-3       1.00000       0.00000  
     146  hru0146                    hru         146     1.7023E-4       1.00000       0.00000  
     147  hru0147                    hru         147     1.9241E-5       1.00000       0.00000  
     148  hru0148                    hru         148     2.5547E-4       1.00000       0.00000  
     149  hru0149                    hru         149     1.6270E-3       1.00000       0.00000  
     150  hru0150                    hru         150     5.7753E-4       1.00000       0.00000  
     151  hru0151                    hru         151     1.7509E-4       1.00000       0.00000  
     152  hru0152                    hru         152     4.4841E-5       1.00000       0.00000  
     153  hru0153                    hru         153     3.2303E-6       1.00000       0.00000  
     154  hru0154                    hru         154     3.7995E-5       1.00000       0.00000  
     155  hru0155                    hru         155     1.0939E-4       1.00000       0.00000  
     156  hru0156                    hru         156     7.0460E-4       1.00000       0.00000  
     157  hru0157                    hru         157     6.9233E-4       1.00000       0.00000  
     158  hru0158                    hru         158     1.2547E-4       1.00000       0.00000  
     159  hru0159                    hru         159     7.5190E-4       1.00000       0.00000  
     160  hru0160                    hru         160     7.8704E-5       1.00000       0.00000  
     161  hru0161                    hru         161     2.1102E-4       1.00000       0.00000  
     162  hru0162                    hru         162     3.8603E-4       1.00000       0.00000  
     163  hru0163                    hru         163     3.4637E-5       1.00000       0.00000  
     164  hru0164                    hru         164     1.3296E-5       1.00000       0.00000  
     165  hru0165                    hru         165     4.6911E-5       1.00000       0.00000  
     166  hru0166                    hru         166     4.6971E-4       1.00000       0.00000  
     167  hru0167                    hru         167     7.1755E-5       1.00000       0.00000  
     168  hru0168                    hru         168     1.6954E-6       1.00000       0.00000  
     169  hru0169                    hru         169     1.5442E-4       1.00000       0.00000  
     170  hru0170                    hru         170     5.0779E-4       1.00000       0.00000  
     171  hru0171                    hru         171     2.4983E-5       1.00000       0.00000  
     172  hru0172                    hru         172     1.4068E-3       1.00000       0.00000  
     173  hru0173                    hru         173     8.2816E-4       1.00000       0.00000  
     174  hru0174                    hru         174     1.2029E-3       1.00000       0.00000  
     175  hru0175                    hru         175     4.9057E-5       1.00000       0.00000  
     176  hru0176                    hru         176     3.7289E-4       1.00000       0.00000  
     177  hru0177                    hru         177     4.1787E-5       1.00000       0.00000  
     178  hru0178                    hru         178     7.4340E-4       1.00000       0.00000  
     179  hru0179                    hru         179     1.3684E-4       1.00000       0.00000  
     180  hru0180                    hru         180     3.2280E-4       1.00000       0.00000  
     181  hru0181                    hru         181     1.2048E-4       1.00000       0.00000  
     182  hru0182                    hru         182     1.8214E-4       1.00000       0.00000  
     183  hru0183                    hru         183     3.2830E-4       1.00000       0.00000  
     184  hru0184                    hru         184     1.2651E-5       1.00000       0.00000  
     185  hru0185                    hru         185     5.4219E-5       1.00000       0.00000  
     186  hru0186                    hru         186     1.1013E-3       1.00000       0.00000  
     187  hru0187                    hru         187     3.7499E-4       1.00000       0.00000  
     188  hru0188                    hru         188     7.1316E-4       1.00000       0.00000  
     189  hru0189                    hru         189     3.4207E-5       1.00000       0.00000  
     190  hru0190                    hru         190     6.3700E-5       1.00000       0.00000  
     191  hru0191                    hru         191     1.3422E-4       1.00000       0.00000  
     192  hru0192                    hru         192     1.0360E-4       1.00000       0.00000  
     193  hru0193                    hru         193     1.9129E-5       1.00000       0.00000  
     194  hru0194                    hru         194     4.2624E-5       1.00000       0.00000  
     195  hru0195                    hru         195     3.9514E-5       1.00000       0.00000  
     196  hru0196                    hru         196     8.4445E-4       1.00000       0.00000  
     197  hru0197                    hru         197     5.1448E-5       1.00000       0.00000  
     198  hru0198                    hru         198     3.0522E-3       1.00000       0.00000  
     199  hru0199                    hru         199     2.9059E-4       1.00000       0.00000  
     200  hru0200                    hru         200     1.9229E-4       1.00000       0.00000  
     201  hru0201                    hru         201     5.4645E-6       1.00000       0.00000  
     202  hru0202                    hru         202     1.1142E-3       1.00000       0.00000  
     203  hru0203                    hru         203     3.6969E-4       1.00000       0.00000  
     204  hru0204                    hru         204     4.4287E-4       1.00000       0.00000  
     205  hru0205                    hru         205     1.9757E-5       1.00000       0.00000  
     206  hru0206                    hru         206     1.6811E-5       1.00000       0.00000  
     207  hru0207                    hru         207     9.8325E-5       1.00000       0.00000  
     208  hru0208                    hru         208     2.5961E-4       1.00000       0.00000  
     209  hru0209                    hru         209     5.6553E-5       1.00000       0.00000  
     210  hru0210                    hru         210     1.3753E-3       1.00000       0.00000  
     211  hru0211                    hru         211     4.2270E-5       1.00000       0.00000  
     212  hru0212                    hru         212     1.2142E-4       1.00000       0.00000  
     213  hru0213                    hru         213     1.7062E-4       1.00000       0.00000  
     214  hru0214                    hru         214     7.2543E-6       1.00000       0.00000  
     215  hru0215                    hru         215     2.4297E-5       1.00000       0.00000  
     216  hru0216                    hru         216     4.9974E-5       1.00000       0.00000  
     217  hru0217                    hru         217     1.8616E-4       1.00000       0.00000  
     218  hru0218                    hru         218     1.2447E-4       1.00000       0.00000  
     219  hru0219                    hru         219     6.6586E-5       1.00000       0.00000  
     220  hru0220                    hru         220     9.9980E-4       1.00000       0.00000  
     221  hru0221                    hru         221     2.2416E-5       1.00000       0.00000  
     222  hru0222                    hru         222     2.5306E-5       1.00000       0.00000  
     223  hru0223                    hru         223     1.3075E-3       1.00000       0.00000  
     224  hru0224                    hru         224     2.4933E-4       1.00000       0.00000  
     225  hru0225                    hru         225     4.8506E-4       1.00000       0.00000  
     226  hru0226                    hru         226     2.3366E-5       1.00000       0.00000  
     227  hru0227                    hru         227     1.8771E-4       1.00000       0.00000  
     228  hru0228                    hru         228     1.0954E-5       1.00000       0.00000  
     229  hru0229                    hru         229     9.9851E-4       1.00000       0.00000  
     230  hru0230                    hru         230     5.0997E-4       1.00000       0.00000  
     231  hru0231                    hru         231     1.2350E-3       1.00000       0.00000  
     232  hru0232                    hru         232     4.4715E-5       1.00000       0.00000  
     233  hru0233                    hru         233     7.8807E-5       1.00000       0.00000  
     234  hru0234                    hru         234     6.4699E-6       1.00000       0.00000  
     235  hru0235                    hru         235     1.1968E-5       1.00000       0.00000  
     236  hru0236                    hru         236     1.5564E-4       1.00000       0.00000  
     237  hru0237                    hru         237     1.6402E-4       1.00000       0.00000  
     238  hru0238                    hru         238     6.3440E-4       1.00000       0.00000  
     239  hru0239                    hru         239     5.8209E-6       1.00000       0.00000  
     240  hru0240                    hru         240     1.5711E-4       1.00000       0.00000  
     241  hru0241                    hru         241     1.6867E-4       1.00000       0.00000  
     242  hru0242                    hru         242     3.7921E-5       1.00000       0.00000  
     243  hru0243                    hru         243     3.7143E-4       1.00000       0.00000  
     244  hru0244                    hru         244     2.1979E-3       1.00000       0.00000  
     245  hru0245                    hru         245     2.0694E-3       1.00000       0.00000  
     246  hru0246                    hru         246     8.8319E-4       1.00000       0.00000  
     247  hru0247                    hru         247     7.9532E-5       1.00000       0.00000  
     248  hru0248                    hru         248     1.0033E-3       1.00000       0.00000  
     249  hru0249                    hru         249     8.8274E-4       1.00000       0.00000  
     250  hru0250                    hru         250     8.8970E-5       1.00000       0.00000  
     251  hru0251                    hru         251     2.7111E-3       1.00000       0.00000  
     252  hru0252                    hru         252     8.3196E-5       1.00000       0.00000  
     253  hru0253                    hru         253     3.8412E-4       1.00000       0.00000  
     254  hru0254                    hru         254     5.5533E-4       1.00000       0.00000  
     255  hru0255                    hru         255     9.2595E-4       1.00000       0.00000  
     256  hru0256                    hru         256     7.8581E-4       1.00000       0.00000  
     257  hru0257                    hru         257     5.6857E-5       1.00000       0.00000  
     258  hru0258                    hru         258     1.6426E-4       1.00000       0.00000  
     259  hru0259                    hru         259     7.2801E-5       1.00000       0.00000  
     260  hru0260                    hru         260     3.2043E-4       1.00000       0.00000  
     261  hru0261                    hru         261     1.5895E-3       1.00000       0.00000  
     262  hru0262                    hru         262     3.9642E-5       1.00000       0.00000  
     263  hru0263                    hru         263     7.9978E-4       1.00000       0.00000  
     264  hru0264                    hru         264     6.4209E-5       1.00000       0.00000  
     265  hru0265                    hru         265     7.2234E-4       1.00000       0.00000  
     266  hru0266                    hru         266     5.4874E-4       1.00000       0.00000  
     267  hru0267                    hru         267     2.5237E-4       1.00000       0.00000  
     268  hru0268                    hru         268     1.4996E-3       1.00000       0.00000  
     269  hru0269                    hru         269     2.4810E-5       1.00000       0.00000  
     270  hru0270                    hru         270     4.8618E-6       1.00000       0.00000  
     271  hru0271                    hru         271     3.1496E-5       1.00000       0.00000  
     272  hru0272                    hru         272     7.5155E-4       1.00000       0.00000  
     273  hru0273                    hru         273     6.1546E-5       1.00000       0.00000  
     274  hru0274                    hru         274     6.8755E-4       1.00000       0.00000  
     275  hru0275                    hru         275     1.1016E-3       1.00000       0.00000  
     276  hru0276                    hru         276     1.2078E-3       1.00000       0.00000  
     277  hru0277                    hru         277     5.1323E-5       1.00000       0.00000  
     278  hru0278                    hru         278     1.6885E-5       1.00000       0.00000  
     279  hru0279                    hru         279     1.8255E-3       1.00000       0.00000  
     280  hru0280                    hru         280     1.0519E-5       1.00000       0.00000  
     281  hru0281                    hru         281     1.5187E-5       1.00000       0.00000  
     282  hru0282                    hru         282     2.1444E-3       1.00000       0.00000  
     283  hru0283                    hru         283     3.7746E-3       1.00000       0.00000  
     284  hru0284                    hru         284     1.6523E-5       1.00000       0.00000  
     285  hru0285                    hru         285     2.1863E-3       1.00000       0.00000  
     286  hru0286                    hru         286     1.4396E-4       1.00000       0.00000  
     287  hru0287                    hru         287     3.7984E-6       1.00000       0.00000  
     288  hru0288                    hru         288     1.6130E-3       1.00000       0.00000  
     289  hru0289                    hru         289     2.4162E-5       1.00000       0.00000  
     290  hru0290                    hru         290     1.2884E-4       1.00000       0.00000  
     291  hru0291                    hru         291     1.0444E-3       1.00000       0.00000  
     292  hru0292                    hru         292     1.5292E-5       1.00000       0.00000  
     293  hru0293                    hru         293     4.6277E-3       1.00000       0.00000  
     294  hru0294                    hru         294     1.8841E-4       1.00000       0.00000  
     295  hru0295                    hru         295     7.4850E-5       1.00000       0.00000  
     296  hru0296                    hru         296     1.9840E-4       1.00000       0.00000  
     297  hru0297                    hru         297     4.6017E-4       1.00000       0.00000  
     298  hru0298                    hru         298     3.0565E-4       1.00000       0.00000  
     299  hru0299                    hru         299     2.6799E-3       1.00000       0.00000  
     300  hru0300                    hru         300     1.7019E-3       1.00000       0.00000  
     301  hru0301                    hru         301     4.4852E-4       1.00000       0.00000  
     302  hru0302                    hru         302     2.4909E-4       1.00000       0.00000  
     303  hru0303                    hru         303     8.0887E-4       1.00000       0.00000  
     304  hru0304                    hru         304     1.0583E-4       1.00000       0.00000  
     305  hru0305                    hru         305     2.9040E-4       1.00000       0.00000  
     306  hru0306                    hru         306     9.2578E-4       1.00000       0.00000  
     307  hru0307                    hru         307     2.6984E-4       1.00000       0.00000  