nutrients.sol: written by SWAT+ editor v2.1.0 on 2023-02-24 18:07 for SWAT+ rev.60.5.4
name                    exp_co         lab_p       nitrate    fr_hum_act       hum_c_n       hum_c_p        inorgp    watersol_p         h3a_p     mehlich_p  bray_strong_p  description
soilnut1               0.00050       5.00000       7.00000       0.02000      10.00000      80.00000       3.50000       0.15000       0.25000       1.20000       0.85000             
snut_hru0001           0.00050      38.89000       7.00000       0.02000      10.00000      80.00000     405.00000       0.25920       0.25000       1.20000       0.85000             
snut_hru0002           0.00050      38.89000       7.00000       0.02000      10.00000      80.00000     405.00000       0.25920       0.25000       1.20000       0.85000             
snut_hru0003           0.00050      38.89000       7.00000       0.02000      10.00000      80.00000     405.00000       0.25920       0.25000       1.20000       0.85000             
snut_hru0004           0.00050      38.89000       7.00000       0.02000      10.00000      80.00000     405.00000       0.25920       0.25000       1.20000       0.85000             
snut_hru0005           0.00050      38.89000       7.00000       0.02000      10.00000      80.00000     405.00000       0.25920       0.25000       1.20000       0.85000             
snut_hru0006           0.00050      38.89000       7.00000       0.02000      10.00000      80.00000     405.00000       0.25920       0.25000       1.20000       0.85000             
snut_hru0007           0.00050      38.89000       7.00000       0.02000      10.00000      80.00000     405.00000       0.25920       0.25000       1.20000       0.85000             
snut_hru0008           0.00050      38.89000       7.00000       0.02000      10.00000      80.00000     405.00000       0.25920       0.25000       1.20000       0.85000             
snut_hru0009           0.00050      38.89000       7.00000       0.02000      10.00000      80.00000     405.00000       0.25920       0.25000       1.20000       0.85000             
snut_hru0010           0.00050      38.89000       7.00000       0.02000      10.00000      80.00000     405.00000       0.25920       0.25000       1.20000       0.85000             
snut_hru0011           0.00050      38.89000       7.00000       0.02000      10.00000      80.00000     405.00000       0.25920       0.25000       1.20000       0.85000             
snut_hru0012           0.00050      38.89000       7.00000       0.02000      10.00000      80.00000     405.00000       0.25920       0.25000       1.20000       0.85000             
snut_hru0013           0.00050      38.89000       7.00000       0.02000      10.00000      80.00000     405.00000       0.25920       0.25000       1.20000       0.85000             
snut_hru0014           0.00050      38.89000       7.00000       0.02000      10.00000      80.00000     405.00000       0.25920       0.25000       1.20000       0.85000             
snut_hru0015           0.00050      38.89000       7.00000       0.02000      10.00000      80.00000     405.00000       0.25920       0.25000       1.20000       0.85000             
snut_hru0016           0.00050      38.89000       7.00000       0.02000      10.00000      80.00000     405.00000       0.25920       0.25000       1.20000       0.85000             
snut_hru0017           0.00050      -4.31032       7.00000       0.02000      10.00000      80.00000     186.57141       0.11941       0.25000       1.20000       0.85000             
snut_hru0018           0.00050       2.98942       7.00000       0.02000      10.00000      80.00000     223.48023       0.14303       0.25000       1.20000       0.85000             
snut_hru0019           0.00050      43.77389       7.00000       0.02000      10.00000      80.00000     429.69382       0.27500       0.25000       1.20000       0.85000             
snut_hru0020           0.00050      45.73271       7.00000       0.02000      10.00000      80.00000     439.59795       0.28134       0.25000       1.20000       0.85000             
snut_hru0021           0.00050      38.89000       7.00000       0.02000      10.00000      80.00000     405.00000       0.25920       0.25000       1.20000       0.85000             
snut_hru0022           0.00050      49.59593       7.00000       0.02000      10.00000      80.00000     459.13113       0.29384       0.25000       1.20000       0.85000             
snut_hru0023           0.00050      54.26135       7.00000       0.02000      10.00000      80.00000     482.72032       0.30894       0.25000       1.20000       0.85000             
snut_hru0024           0.00050       3.29000       7.00000       0.02000      10.00000      80.00000     225.00000       0.14400       0.25000       1.20000       0.85000             
snut_hru0025           0.00050       3.29000       7.00000       0.02000      10.00000      80.00000     225.00000       0.14400       0.25000       1.20000       0.85000             
snut_hru0026           0.00050       3.29000       7.00000       0.02000      10.00000      80.00000     225.00000       0.14400       0.25000       1.20000       0.85000             
snut_hru0027           0.00050       3.29000       7.00000       0.02000      10.00000      80.00000     225.00000       0.14400       0.25000       1.20000       0.85000             
snut_hru0028           0.00050       3.29000       7.00000       0.02000      10.00000      80.00000     225.00000       0.14400       0.25000       1.20000       0.85000             
snut_hru0029           0.00050       3.29000       7.00000       0.02000      10.00000      80.00000     225.00000       0.14400       0.25000       1.20000       0.85000             
snut_hru0030           0.00050       3.29000       7.00000       0.02000      10.00000      80.00000     225.00000       0.14400       0.25000       1.20000       0.85000             
snut_hru0031           0.00050       3.29000       7.00000       0.02000      10.00000      80.00000     225.00000       0.14400       0.25000       1.20000       0.85000             
snut_hru0032           0.00050       3.29000       7.00000       0.02000      10.00000      80.00000     225.00000       0.14400       0.25000       1.20000       0.85000             
snut_hru0033           0.00050       3.29000       7.00000       0.02000      10.00000      80.00000     225.00000       0.14400       0.25000       1.20000       0.85000             
snut_hru0034           0.00050       3.29000       7.00000       0.02000      10.00000      80.00000     225.00000       0.14400       0.25000       1.20000       0.85000             
snut_hru0035           0.00050       3.29000       7.00000       0.02000      10.00000      80.00000     225.00000       0.14400       0.25000       1.20000       0.85000             
snut_hru0036           0.00050       3.29000       7.00000       0.02000      10.00000      80.00000     225.00000       0.14400       0.25000       1.20000       0.85000             
snut_hru0037           0.00050       3.29000       7.00000       0.02000      10.00000      80.00000     225.00000       0.14400       0.25000       1.20000       0.85000             
snut_hru0038           0.00050       3.29000       7.00000       0.02000      10.00000      80.00000     225.00000       0.14400       0.25000       1.20000       0.85000             
snut_hru0039           0.00050       3.29000       7.00000       0.02000      10.00000      80.00000     225.00000       0.14400       0.25000       1.20000       0.85000             
snut_hru0040           0.00050     -14.51000       7.00000       0.02000      10.00000      80.00000     135.00000       0.08640       0.25000       1.20000       0.85000             
snut_hru0041           0.00050       3.29000       7.00000       0.02000      10.00000      80.00000     225.00000       0.14400       0.25000       1.20000       0.85000             
snut_hru0042           0.00050       3.29000       7.00000       0.02000      10.00000      80.00000     225.00000       0.14400       0.25000       1.20000       0.85000             
snut_hru0043           0.00050       3.29000       7.00000       0.02000      10.00000      80.00000     225.00000       0.14400       0.25000       1.20000       0.85000             
snut_hru0044           0.00050      -4.76567       7.00000       0.02000      10.00000      80.00000     184.26911       0.11793       0.25000       1.20000       0.85000             
snut_hru0045           0.00050       3.29000       7.00000       0.02000      10.00000      80.00000     225.00000       0.14400       0.25000       1.20000       0.85000             
snut_hru0046           0.00050     -14.51000       7.00000       0.02000      10.00000      80.00000     135.00000       0.08640       0.25000       1.20000       0.85000             
snut_hru0047           0.00050     -14.51000       7.00000       0.02000      10.00000      80.00000     135.00000       0.08640       0.25000       1.20000       0.85000             
snut_hru0048           0.00050     -13.55546       7.00000       0.02000      10.00000      80.00000     139.82631       0.08949       0.25000       1.20000       0.85000             
snut_hru0049           0.00050      56.69000       7.00000       0.02000      10.00000      80.00000     495.00000       0.31680       0.25000       1.20000       0.85000             
snut_hru0050           0.00050      53.97336       7.00000       0.02000      10.00000      80.00000     481.26420       0.30801       0.25000       1.20000       0.85000             
snut_hru0051           0.00050      47.99523       7.00000       0.02000      10.00000      80.00000     451.03769       0.28866       0.25000       1.20000       0.85000             
snut_hru0052           0.00050      41.87643       7.00000       0.02000      10.00000      80.00000     420.09992       0.26886       0.25000       1.20000       0.85000             
snut_hru0053           0.00050      38.89000       7.00000       0.02000      10.00000      80.00000     405.00000       0.25920       0.25000       1.20000       0.85000             
snut_hru0054           0.00050      38.89000       7.00000       0.02000      10.00000      80.00000     405.00000       0.25920       0.25000       1.20000       0.85000             
snut_hru0055           0.00050      21.09000       7.00000       0.02000      10.00000      80.00000     315.00000       0.20160       0.25000       1.20000       0.85000             
snut_hru0056           0.00050      21.09000       7.00000       0.02000      10.00000      80.00000     315.00000       0.20160       0.25000       1.20000       0.85000             
snut_hru0057           0.00050      21.09000       7.00000       0.02000      10.00000      80.00000     315.00000       0.20160       0.25000       1.20000       0.85000             
snut_hru0058           0.00050      21.09000       7.00000       0.02000      10.00000      80.00000     315.00000       0.20160       0.25000       1.20000       0.85000             
snut_hru0059           0.00050      21.69421       7.00000       0.02000      10.00000      80.00000     318.05500       0.20356       0.25000       1.20000       0.85000             
snut_hru0060           0.00050      21.09000       7.00000       0.02000      10.00000      80.00000     315.00000       0.20160       0.25000       1.20000       0.85000             
snut_hru0061           0.00050      21.09000       7.00000       0.02000      10.00000      80.00000     315.00000       0.20160       0.25000       1.20000       0.85000             
snut_hru0062           0.00050      21.09000       7.00000       0.02000      10.00000      80.00000     315.00000       0.20160       0.25000       1.20000       0.85000             
snut_hru0063           0.00050      21.54822       7.00000       0.02000      10.00000      80.00000     317.31682       0.20308       0.25000       1.20000       0.85000             
snut_hru0064           0.00050      21.09000       7.00000       0.02000      10.00000      80.00000     315.00000       0.20160       0.25000       1.20000       0.85000             
snut_hru0065           0.00050      27.64676       7.00000       0.02000      10.00000      80.00000     348.15217       0.22282       0.25000       1.20000       0.85000             
snut_hru0066           0.00050      21.09000       7.00000       0.02000      10.00000      80.00000     315.00000       0.20160       0.25000       1.20000       0.85000             
snut_hru0067           0.00050      21.09000       7.00000       0.02000      10.00000      80.00000     315.00000       0.20160       0.25000       1.20000       0.85000             
snut_hru0068           0.00050      21.09000       7.00000       0.02000      10.00000      80.00000     315.00000       0.20160       0.25000       1.20000       0.85000             
snut_hru0069           0.00050      21.09000       7.00000       0.02000      10.00000      80.00000     315.00000       0.20160       0.25000       1.20000       0.85000             
snut_hru0070           0.00050      21.09000       7.00000       0.02000      10.00000      80.00000     315.00000       0.20160       0.25000       1.20000       0.85000             
snut_hru0071           0.00050      21.09000       7.00000       0.02000      10.00000      80.00000     315.00000       0.20160       0.25000       1.20000       0.85000             
snut_hru0072           0.00050      38.89000       7.00000       0.02000      10.00000      80.00000     405.00000       0.25920       0.25000       1.20000       0.85000             
snut_hru0073           0.00050      38.89000       7.00000       0.02000      10.00000      80.00000     405.00000       0.25920       0.25000       1.20000       0.85000             
snut_hru0074           0.00050      38.89000       7.00000       0.02000      10.00000      80.00000     405.00000       0.25920       0.25000       1.20000       0.85000             
snut_hru0075           0.00050      38.89000       7.00000       0.02000      10.00000      80.00000     405.00000       0.25920       0.25000       1.20000       0.85000             
snut_hru0076           0.00050      38.89000       7.00000       0.02000      10.00000      80.00000     405.00000       0.25920       0.25000       1.20000       0.85000             
snut_hru0077           0.00050      38.89000       7.00000       0.02000      10.00000      80.00000     405.00000       0.25920       0.25000       1.20000       0.85000             
snut_hru0078           0.00050      38.81186       7.00000       0.02000      10.00000      80.00000     404.60492       0.25895       0.25000       1.20000       0.85000             
snut_hru0079           0.00050      22.38909       7.00000       0.02000      10.00000      80.00000     321.56844       0.20580       0.25000       1.20000       0.85000             
snut_hru0080           0.00050      26.38654       7.00000       0.02000      10.00000      80.00000     341.78025       0.21874       0.25000       1.20000       0.85000             
snut_hru0081           0.00050      35.35959       7.00000       0.02000      10.00000      80.00000     387.14960       0.24778       0.25000       1.20000       0.85000             
snut_hru0082           0.00050      38.89000       7.00000       0.02000      10.00000      80.00000     405.00000       0.25920       0.25000       1.20000       0.85000             
snut_hru0083           0.00050      38.89000       7.00000       0.02000      10.00000      80.00000     405.00000       0.25920       0.25000       1.20000       0.85000             
snut_hru0084           0.00050      38.89000       7.00000       0.02000      10.00000      80.00000     405.00000       0.25920       0.25000       1.20000       0.85000             
snut_hru0085           0.00050      38.89000       7.00000       0.02000      10.00000      80.00000     405.00000       0.25920       0.25000       1.20000       0.85000             
snut_hru0086           0.00050      51.14292       7.00000       0.02000      10.00000      80.00000     466.95297       0.29885       0.25000       1.20000       0.85000             
snut_hru0087           0.00050      38.89000       7.00000       0.02000      10.00000      80.00000     405.00000       0.25920       0.25000       1.20000       0.85000             
snut_hru0088           0.00050      56.69000       7.00000       0.02000      10.00000      80.00000     495.00000       0.31680       0.25000       1.20000       0.85000             
snut_hru0089           0.00050      47.64773       7.00000       0.02000      10.00000      80.00000     449.28067       0.28754       0.25000       1.20000       0.85000             
snut_hru0090           0.00050      56.40309       7.00000       0.02000      10.00000      80.00000     493.54933       0.31587       0.25000       1.20000       0.85000             
snut_hru0091           0.00050      53.58836       7.00000       0.02000      10.00000      80.00000     479.31755       0.30676       0.25000       1.20000       0.85000             
snut_hru0092           0.00050      56.69000       7.00000       0.02000      10.00000      80.00000     495.00000       0.31680       0.25000       1.20000       0.85000             
snut_hru0093           0.00050      38.89000       7.00000       0.02000      10.00000      80.00000     405.00000       0.25920       0.25000       1.20000       0.85000             
snut_hru0094           0.00050      38.89000       7.00000       0.02000      10.00000      80.00000     405.00000       0.25920       0.25000       1.20000       0.85000             
snut_hru0095           0.00050      38.89000       7.00000       0.02000      10.00000      80.00000     405.00000       0.25920       0.25000       1.20000       0.85000             
snut_hru0096           0.00050      38.89000       7.00000       0.02000      10.00000      80.00000     405.00000       0.25920       0.25000       1.20000       0.85000             
snut_hru0097           0.00050      38.89000       7.00000       0.02000      10.00000      80.00000     405.00000       0.25920       0.25000       1.20000       0.85000             
snut_hru0098           0.00050      38.89000       7.00000       0.02000      10.00000      80.00000     405.00000       0.25920       0.25000       1.20000       0.85000             
snut_hru0099           0.00050      38.89000       7.00000       0.02000      10.00000      80.00000     405.00000       0.25920       0.25000       1.20000       0.85000             
snut_hru0100           0.00050      38.89000       7.00000       0.02000      10.00000      80.00000     405.00000       0.25920       0.25000       1.20000       0.85000             
snut_hru0101           0.00050      38.89000       7.00000       0.02000      10.00000      80.00000     405.00000       0.25920       0.25000       1.20000       0.85000             
snut_hru0102           0.00050      38.89000       7.00000       0.02000      10.00000      80.00000     405.00000       0.25920       0.25000       1.20000       0.85000             
snut_hru0103           0.00050      35.64028       7.00000       0.02000      10.00000      80.00000     388.56882       0.24868       0.25000       1.20000       0.85000             
snut_hru0104           0.00050      39.37171       7.00000       0.02000      10.00000      80.00000     407.43560       0.26076       0.25000       1.20000       0.85000             
snut_hru0105           0.00050      39.08474       7.00000       0.02000      10.00000      80.00000     405.98466       0.25983       0.25000       1.20000       0.85000             
snut_hru0106           0.00050      44.13270       7.00000       0.02000      10.00000      80.00000     431.50804       0.27617       0.25000       1.20000       0.85000             
snut_hru0107           0.00050      38.89000       7.00000       0.02000      10.00000      80.00000     405.00000       0.25920       0.25000       1.20000       0.85000             
snut_hru0108           0.00050      38.89000       7.00000       0.02000      10.00000      80.00000     405.00000       0.25920       0.25000       1.20000       0.85000             
snut_hru0109           0.00050      38.89000       7.00000       0.02000      10.00000      80.00000     405.00000       0.25920       0.25000       1.20000       0.85000             
snut_hru0110           0.00050      38.89000       7.00000       0.02000      10.00000      80.00000     405.00000       0.25920       0.25000       1.20000       0.85000             
snut_hru0111           0.00050      38.89000       7.00000       0.02000      10.00000      80.00000     405.00000       0.25920       0.25000       1.20000       0.85000             
snut_hru0112           0.00050      50.78337       7.00000       0.02000      10.00000      80.00000     465.13502       0.29769       0.25000       1.20000       0.85000             
snut_hru0113           0.00050      38.89000       7.00000       0.02000      10.00000      80.00000     405.00000       0.25920       0.25000       1.20000       0.85000             
snut_hru0114           0.00050      38.89000       7.00000       0.02000      10.00000      80.00000     405.00000       0.25920       0.25000       1.20000       0.85000             
snut_hru0115           0.00050      38.89000       7.00000       0.02000      10.00000      80.00000     405.00000       0.25920       0.25000       1.20000       0.85000             
snut_hru0116           0.00050      56.69000       7.00000       0.02000      10.00000      80.00000     495.00000       0.31680       0.25000       1.20000       0.85000             
snut_hru0117           0.00050      50.99683       7.00000       0.02000      10.00000      80.00000     466.21429       0.29838       0.25000       1.20000       0.85000             
snut_hru0118           0.00050      38.89000       7.00000       0.02000      10.00000      80.00000     405.00000       0.25920       0.25000       1.20000       0.85000             
snut_hru0119           0.00050      44.20168       7.00000       0.02000      10.00000      80.00000     431.85682       0.27639       0.25000       1.20000       0.85000             
snut_hru0120           0.00050      38.89000       7.00000       0.02000      10.00000      80.00000     405.00000       0.25920       0.25000       1.20000       0.85000             
snut_hru0121           0.00050      38.89000       7.00000       0.02000      10.00000      80.00000     405.00000       0.25920       0.25000       1.20000       0.85000             
snut_hru0122           0.00050      38.89000       7.00000       0.02000      10.00000      80.00000     405.00000       0.25920       0.25000       1.20000       0.85000             
snut_hru0123           0.00050      38.89000       7.00000       0.02000      10.00000      80.00000     405.00000       0.25920       0.25000       1.20000       0.85000             
snut_hru0124           0.00050      38.89000       7.00000       0.02000      10.00000      80.00000     405.00000       0.25920       0.25000       1.20000       0.85000             
snut_hru0125           0.00050      38.89000       7.00000       0.02000      10.00000      80.00000     405.00000       0.25920       0.25000       1.20000       0.85000             
snut_hru0126           0.00050      38.89000       7.00000       0.02000      10.00000      80.00000     405.00000       0.25920       0.25000       1.20000       0.85000             
snut_hru0127           0.00050      50.23735       7.00000       0.02000      10.00000      80.00000     462.37427       0.29592       0.25000       1.20000       0.85000             
snut_hru0128           0.00050      52.81554       7.00000       0.02000      10.00000      80.00000     475.41005       0.30426       0.25000       1.20000       0.85000             
snut_hru0129           0.00050      51.50782       7.00000       0.02000      10.00000      80.00000     468.79795       0.30003       0.25000       1.20000       0.85000             
snut_hru0130           0.00050      46.15581       7.00000       0.02000      10.00000      80.00000     441.73723       0.28271       0.25000       1.20000       0.85000             
snut_hru0131           0.00050      48.66798       7.00000       0.02000      10.00000      80.00000     454.43921       0.29084       0.25000       1.20000       0.85000             
snut_hru0132           0.00050      38.89000       7.00000       0.02000      10.00000      80.00000     405.00000       0.25920       0.25000       1.20000       0.85000             
snut_hru0133           0.00050      38.89000       7.00000       0.02000      10.00000      80.00000     405.00000       0.25920       0.25000       1.20000       0.85000             
snut_hru0134           0.00050      56.69000       7.00000       0.02000      10.00000      80.00000     495.00000       0.31680       0.25000       1.20000       0.85000             
snut_hru0135           0.00050      56.69000       7.00000       0.02000      10.00000      80.00000     495.00000       0.31680       0.25000       1.20000       0.85000             
snut_hru0136           0.00050      56.69000       7.00000       0.02000      10.00000      80.00000     495.00000       0.31680       0.25000       1.20000       0.85000             
snut_hru0137           0.00050     -14.51000       7.00000       0.02000      10.00000      80.00000     135.00000       0.08640       0.25000       1.20000       0.85000             
snut_hru0138           0.00050      56.69000       7.00000       0.02000      10.00000      80.00000     495.00000       0.31680       0.25000       1.20000       0.85000             
snut_hru0139           0.00050      21.09000       7.00000       0.02000      10.00000      80.00000     315.00000       0.20160       0.25000       1.20000       0.85000             
snut_hru0140           0.00050       3.29000       7.00000       0.02000      10.00000      80.00000     225.00000       0.14400       0.25000       1.20000       0.85000             
snut_hru0141           0.00050       3.29000       7.00000       0.02000      10.00000      80.00000     225.00000       0.14400       0.25000       1.20000       0.85000             
snut_hru0142           0.00050       3.29000       7.00000       0.02000      10.00000      80.00000     225.00000       0.14400       0.25000       1.20000       0.85000             
snut_hru0143           0.00050       3.29000       7.00000       0.02000      10.00000      80.00000     225.00000       0.14400       0.25000       1.20000       0.85000             
snut_hru0144           0.00050      38.89000       7.00000       0.02000      10.00000      80.00000     405.00000       0.25920       0.25000       1.20000       0.85000             
snut_hru0145           0.00050      21.09000       7.00000       0.02000      10.00000      80.00000     315.00000       0.20160       0.25000       1.20000       0.85000             
snut_hru0146           0.00050      21.09000       7.00000       0.02000      10.00000      80.00000     315.00000       0.20160       0.25000       1.20000       0.85000             
snut_hru0147           0.00050       3.29000       7.00000       0.02000      10.00000      80.00000     225.00000       0.14400       0.25000       1.20000       0.85000             
snut_hru0148           0.00050       4.60555       7.00000       0.02000      10.00000      80.00000     231.65168       0.14826       0.25000       1.20000       0.85000             
snut_hru0149           0.00050      20.21985       7.00000       0.02000      10.00000      80.00000     310.60034       0.19878       0.25000       1.20000       0.85000             
snut_hru0150           0.00050      21.09000       7.00000       0.02000      10.00000      80.00000     315.00000       0.20160       0.25000       1.20000       0.85000             
snut_hru0151           0.00050       3.29000       7.00000       0.02000      10.00000      80.00000     225.00000       0.14400       0.25000       1.20000       0.85000             
snut_hru0152           0.00050      21.09000       7.00000       0.02000      10.00000      80.00000     315.00000       0.20160       0.25000       1.20000       0.85000             
snut_hru0153           0.00050      21.09000       7.00000       0.02000      10.00000      80.00000     315.00000       0.20160       0.25000       1.20000       0.85000             
snut_hru0154           0.00050      21.09000       7.00000       0.02000      10.00000      80.00000     315.00000       0.20160       0.25000       1.20000       0.85000             
snut_hru0155           0.00050      21.09000       7.00000       0.02000      10.00000      80.00000     315.00000       0.20160       0.25000       1.20000       0.85000             
snut_hru0156           0.00050      21.09000       7.00000       0.02000      10.00000      80.00000     315.00000       0.20160       0.25000       1.20000       0.85000             
snut_hru0157           0.00050      21.09000       7.00000       0.02000      10.00000      80.00000     315.00000       0.20160       0.25000       1.20000       0.85000             
snut_hru0158           0.00050       3.29000       7.00000       0.02000      10.00000      80.00000     225.00000       0.14400       0.25000       1.20000       0.85000             
snut_hru0159           0.00050       3.29000       7.00000       0.02000      10.00000      80.00000     225.00000       0.14400       0.25000       1.20000       0.85000             
snut_hru0160           0.00050     -14.51000       7.00000       0.02000      10.00000      80.00000     135.00000       0.08640       0.25000       1.20000       0.85000             