soils.sol: written by SWAT+ editor v2.1.0 on 2023-02-24 18:07 for SWAT+ rev.60.5.4
name                            nly           hyd_grp        dp_tot    anion_excl      perc_crk  texture                              dp            bd           awc        soil_k        carbon          clay          silt          sand          rock           alb        usle_k            ec         caco3            ph  
LEG_771                           5                 D    1500.00000       0.00000       0.00000  Some_shit                  
                                                                                                                               100.00000       1.43050       0.21000      12.50000       1.74420      14.50000      69.67068      15.82932       1.00000       0.17153       0.34305       0.00000       0.00000       0.00000  
                                                                                                                               350.00000       1.63050       0.20000       6.25000       1.74420      14.50000      69.67068      15.82932       1.00000       0.17445       0.34305       0.00000       0.00000       0.00000  
                                                                                                                               650.00000       1.84900       0.18000       1.25000       0.00010      14.50000      69.67068      15.82932       1.00000       0.18152       0.43965       0.00000       0.00000       0.00000  
                                                                                                                               900.00000       1.84900       0.18000       1.25000       0.00010      14.50000      69.67068      15.82932       1.00000       0.18152       0.43965       0.00000       0.00000       0.00000  
                                                                                                                              1500.00000       1.87900       0.16000       0.83000       0.00010      21.00000      67.38264      11.61736       6.00000       0.19063       0.43535       0.00000       0.00000       0.00000  
LEG_776                           6                 D    1500.00000       0.00000       0.00000  Some_shit                  
                                                                                                                               370.00000       1.44900       0.20000      12.50000       0.87210      14.50000      69.67068      15.82932       7.00000       0.17445       0.41581       0.00000       0.00000       0.00000  
                                                                                                                               450.00000       1.64900       0.18000       6.25000       0.00010      14.50000      69.67068      15.82932       7.00000       0.18152       0.43965       0.00000       0.00000       0.00000  
                                                                                                                               550.00000       1.64900       0.18000       6.25000       0.00010      14.50000      69.67068      15.82932       7.00000       0.18152       0.43965       0.00000       0.00000       0.00000  
                                                                                                                               750.00000       1.87900       0.16000       0.83000       0.00010      21.00000      67.38264      11.61736       7.00000       0.19063       0.43535       0.00000       0.00000       0.00000  
                                                                                                                               800.00000       1.57500       0.10000      29.17000       0.00010      10.00000      21.07723      68.92277      39.00000       0.23706       0.23431       0.00000       0.00000       0.00000  
                                                                                                                              1500.00000       1.55000       0.09000      41.67000       0.00010       6.50000      14.63389      78.86611      69.00000       0.24885       0.18059       0.00000       0.00000       0.00000  
LEG_778                           7                 C    2000.00000       0.00000       0.00000  Some_shit                  
                                                                                                                               250.00000       1.40750       0.19000      29.17000       0.87210      12.50000      35.40737      52.09263       7.00000       0.17776       0.28186       0.00000       0.00000       0.00000  
                                                                                                                               300.00000       1.62000       0.16000       8.33000       0.00010      12.50000      47.98727      39.51273       7.00000       0.19063       0.35192       0.00000       0.00000       0.00000  
                                                                                                                               550.00000       1.67500       0.14000       8.33000       0.00010      23.50000      50.78752      25.71248      19.00000       0.20238       0.37203       0.00000       0.00000       0.00000  
                                                                                                                               750.00000       1.85000       0.12000       6.25000       0.00010      21.00000      39.23076      39.76924      44.00000       0.21753       0.31792       0.00000       0.00000       0.00000  
                                                                                                                              1000.00000       1.82750       0.09000      10.42000       0.00010      21.00000      18.24817      60.75183      56.00000       0.24885       0.22391       0.00000       0.00000       0.00000  
                                                                                                                              1300.00000       1.77500       0.09000      16.67000       0.00010      10.00000      21.07723      68.92277      39.00000       0.24885       0.23431       0.00000       0.00000       0.00000  
                                                                                                                              2000.00000       1.75000       0.09000      20.83000       0.00010       6.50000      14.63389      78.86611      86.00000       0.24885       0.18059       0.00000       0.00000       0.00000  
LEG_789                           4                 A    1500.00000       0.00000       0.00000  Some_shit                  
                                                                                                                                50.00000       1.41250       0.20000      29.17000       1.74420      12.50000      35.40737      52.09263      39.00000       0.17445       0.23253       0.00000       0.00000       0.00000  
                                                                                                                               400.00000       1.55000       0.09000      41.67000       0.29070       6.50000      14.63389      78.86611      44.00000       0.24885       0.17986       0.00000       0.00000       0.00000  
                                                                                                                               800.00000       1.57500       0.10000      29.17000       0.00010      10.00000      21.07723      68.92277      74.00000       0.23706       0.23431       0.00000       0.00000       0.00000  
                                                                                                                              1500.00000       1.53000       0.09000      52.08000       0.00010       2.50000      13.36536      84.13464      88.00000       0.24885       0.15068       0.00000       0.00000       0.00000  
LEG_795                           4                 D    1500.00000       0.00000       0.00000  Some_shit                  
                                                                                                                                50.00000       1.48900       0.20000      12.50000       3.48840      21.00000      67.38264      11.61736       0.00000       0.17445       0.32656       0.00000       0.00000       0.00000  
                                                                                                                               400.00000       1.67900       0.17000       5.00000       0.87210      21.00000      67.38264      11.61736       0.00000       0.18579       0.41175       0.00000       0.00000       0.00000  
                                                                                                                               750.00000       1.87900       0.16000       0.83000       0.00010      21.00000      67.38264      11.61736       0.00000       0.19063       0.43535       0.00000       0.00000       0.00000  
                                                                                                                              1500.00000       1.87900       0.16000       0.83000       0.00010      21.00000      67.38264      11.61736       0.00000       0.19063       0.43535       0.00000       0.00000       0.00000  
LEG_799                           4                 C    1200.00000       0.00000       0.00000  Some_shit                  
                                                                                                                               220.00000       1.44900       0.20000      12.50000       0.87210      14.50000      69.67068      15.82932       6.00000       0.17445       0.41581       0.00000       0.00000       0.00000  
                                                                                                                               350.00000       1.64900       0.18000       6.25000       0.29070      14.50000      69.67068      15.82932       6.00000       0.18152       0.43785       0.00000       0.00000       0.00000  
                                                                                                                               630.00000       1.87500       0.12000       3.33000       0.00010      23.50000      50.78752      25.71248       6.00000       0.21753       0.37203       0.00000       0.00000       0.00000  
                                                                                                                              1200.00000       1.87500       0.12000       3.33000       0.00010      23.50000      50.78752      25.71248      56.00000       0.21753       0.37203       0.00000       0.00000       0.00000  
LEG_803                           5                 C    1300.00000       0.00000       0.00000  Some_shit                  
                                                                                                                               360.00000       1.33600       0.22000      12.50000       1.74420       4.00000      57.22645      38.77355       6.00000       0.16896       0.30293       0.00000       0.00000       0.00000  
                                                                                                                               450.00000       1.62850       0.19000       6.25000       0.29070      10.00000      71.14060      18.85940       6.00000       0.17776       0.44134       0.00000       0.00000       0.00000  
                                                                                                                               550.00000       1.62000       0.16000       8.33000       0.00010      12.50000      47.98727      39.51273      10.00000       0.19063       0.35192       0.00000       0.00000       0.00000  
                                                                                                                               850.00000       1.56000       0.07000      50.00000       0.00010      11.00000       5.00000      84.00000       6.00000       0.27743       0.10915       0.00000       0.00000       0.00000  
                                                                                                                              1300.00000       1.55000       0.09000      41.67000       0.00010       6.50000      14.63389      78.86611       6.00000       0.24885       0.18059       0.00000       0.00000       0.00000  
LEG_805                           5                 D    1300.00000       0.00000       0.00000  Some_shit                  
                                                                                                                               200.00000       1.39000       0.20000      12.50000       1.74420      10.00000      71.14060      18.85940       6.00000       0.17445       0.34578       0.00000       0.00000       0.00000  
                                                                                                                               450.00000       1.64900       0.18000       6.25000       0.29070      14.50000      69.67068      15.82932       6.00000       0.18152       0.43785       0.00000       0.00000       0.00000  
                                                                                                                               700.00000       1.67900       0.16000       5.00000       0.00010      21.00000      67.38264      11.61736       6.00000       0.19063       0.43535       0.00000       0.00000       0.00000  
                                                                                                                               800.00000       1.82000       0.15000       2.92000       0.00010      12.50000      47.98727      39.51273      24.00000       0.19614       0.35192       0.00000       0.00000       0.00000  
                                                                                                                              1300.00000       1.55000       0.09000      41.67000       0.00010       6.50000      14.63389      78.86611      73.00000       0.24885       0.18059       0.00000       0.00000       0.00000  
LEG_817                           5                 C    2000.00000       0.00000       0.00000  Some_shit                  
                                                                                                                               150.00000       1.35850       0.12000      66.67000       1.74420       6.50000      14.63389      78.86611       2.00000       0.21753       0.14091       0.00000       0.00000       0.00000  
                                                                                                                               750.00000       1.55000       0.09000      41.67000       0.29070       6.50000      14.63389      78.86611       2.00000       0.24885       0.17986       0.00000       0.00000       0.00000  
                                                                                                                              1200.00000       1.62000       0.16000       8.33000       0.29070      12.50000      47.98727      39.51273       2.00000       0.19063       0.35048       0.00000       0.00000       0.00000  
                                                                                                                              1800.00000       1.55000       0.09000      41.67000       0.00010       6.50000      14.63389      78.86611       2.00000       0.24885       0.18059       0.00000       0.00000       0.00000  
                                                                                                                              2000.00000       1.51750       0.05000     104.17000       0.00010       2.50000       3.27862      94.22138       2.00000       0.31428       0.08616       0.00000       0.00000       0.00000  
LEG_818                           5                 D    2000.00000       0.00000       0.00000  Some_shit                  
                                                                                                                               130.00000       1.43050       0.22000      12.50000       3.48840      14.50000      69.67068      15.82932       0.00000       0.16896       0.32978       0.00000       0.00000       0.00000  
                                                                                                                               550.00000       1.64900       0.19000       6.25000       0.87210      14.50000      69.67068      15.82932       0.00000       0.17776       0.41581       0.00000       0.00000       0.00000  
                                                                                                                               800.00000       1.61250       0.18000       8.33000       1.74420      12.50000      47.98727      39.51273       0.00000       0.18152       0.27460       0.00000       0.00000       0.00000  
                                                                                                                              1500.00000       1.64900       0.19000       6.25000       0.87210      14.50000      69.67068      15.82932       0.00000       0.17776       0.41581       0.00000       0.00000       0.00000  
                                                                                                                              2000.00000       1.55000       0.09000      41.67000       0.00010       6.50000      14.63389      78.86611      60.00000       0.24885       0.18059       0.00000       0.00000       0.00000  
LEG_820                           2                 A    1500.00000       0.00000       0.00000  Some_shit                  
                                                                                                                               200.00000       1.41250       0.20000      29.17000       1.74420      12.50000      35.40737      52.09263      19.00000       0.17445       0.23253       0.00000       0.00000       0.00000  
                                                                                                                              1500.00000       1.55250       0.12000      25.00000       0.00010       4.00000      26.86109      69.13891      19.00000       0.21753       0.25913       0.00000       0.00000       0.00000  
LEG_821                           2                 A    1300.00000       0.00000       0.00000  Some_shit                  
                                                                                                                                20.00000       1.35000       0.11000      66.67000       0.87210       6.50000      14.63389      78.86611      19.00000       0.22667       0.17080       0.00000       0.00000       0.00000  
                                                                                                                              1300.00000       1.57500       0.10000      29.17000       0.00010      10.00000      21.07723      68.92277      19.00000       0.23706       0.23431       0.00000       0.00000       0.00000  
LEG_822                           2                 A    1300.00000       0.00000       0.00000  Some_shit                  
                                                                                                                                50.00000       1.35000       0.10000      66.67000       0.29070       6.50000      14.63389      78.86611      48.00000       0.23706       0.17986       0.00000       0.00000       0.00000  
                                                                                                                              1300.00000       1.55000       0.09000      41.67000       0.00010       6.50000      14.63389      78.86611      48.00000       0.24885       0.18059       0.00000       0.00000       0.00000  
LEG_823                           5                 C    1800.00000       0.00000       0.00000  Some_shit                  
                                                                                                                               300.00000       1.43050       0.21000      12.50000       1.74420      14.50000      69.67068      15.82932       0.00000       0.17153       0.34305       0.00000       0.00000       0.00000  
                                                                                                                               600.00000       1.67900       0.16000       5.00000       0.29070      21.00000      67.38264      11.61736       0.00000       0.19063       0.43357       0.00000       0.00000       0.00000  
                                                                                                                               850.00000       1.87500       0.12000       3.33000       0.00010      23.50000      50.78752      25.71248       0.00000       0.21753       0.37203       0.00000       0.00000       0.00000  
                                                                                                                              1200.00000       1.67900       0.16000       5.00000       0.00010      21.00000      67.38264      11.61736       0.00000       0.19063       0.43535       0.00000       0.00000       0.00000  
                                                                                                                              1800.00000       1.64900       0.18000       6.25000       0.00010      14.50000      69.67068      15.82932       0.00000       0.18152       0.43965       0.00000       0.00000       0.00000  
LEG_824                           4                 D    2000.00000       0.00000       0.00000  Some_shit                  
                                                                                                                               250.00000       1.39000       0.20000      12.50000       1.74420      10.00000      71.14060      18.85940       0.00000       0.17445       0.34578       0.00000       0.00000       0.00000  
                                                                                                                               450.00000       1.64900       0.18000       6.25000       0.00010      14.50000      69.67068      15.82932       0.00000       0.18152       0.43965       0.00000       0.00000       0.00000  
                                                                                                                              1250.00000       1.87900       0.16000       0.83000       0.00010      21.00000      67.38264      11.61736       0.00000       0.19063       0.43535       0.00000       0.00000       0.00000  
                                                                                                                              2000.00000       1.87900       0.16000       0.83000       0.00010      21.00000      67.38264      11.61736       0.00000       0.19063       0.43535       0.00000       0.00000       0.00000  
LEG_863                           5                 C    1500.00000       0.00000       0.00000  Some_shit                  
                                                                                                                               100.00000       1.43050       0.22000      12.50000       3.48840      14.50000      69.67068      15.82932       0.00000       0.16896       0.32978       0.00000       0.00000       0.00000  
                                                                                                                               300.00000       1.64900       0.19000       6.25000       0.87210      14.50000      69.67068      15.82932       0.00000       0.17776       0.41581       0.00000       0.00000       0.00000  
                                                                                                                               600.00000       1.68900       0.18000       5.00000       1.74420      21.00000      67.38264      11.61736       0.00000       0.18152       0.33970       0.00000       0.00000       0.00000  
                                                                                                                               850.00000       1.67900       0.17000       5.00000       0.87210      21.00000      67.38264      11.61736       0.00000       0.18579       0.41175       0.00000       0.00000       0.00000  
                                                                                                                              1500.00000       1.67900       0.16000       5.00000       0.29070      21.00000      67.38264      11.61736       0.00000       0.19063       0.43357       0.00000       0.00000       0.00000  
LEG_865                           4                 C    1300.00000       0.00000       0.00000  Some_shit                  
                                                                                                                               100.00000       1.43050       0.22000      12.50000       3.48840      14.50000      69.67068      15.82932      12.00000       0.16896       0.32978       0.00000       0.00000       0.00000  
                                                                                                                               350.00000       1.64900       0.19000       6.25000       0.87210      14.50000      69.67068      15.82932      12.00000       0.17776       0.41581       0.00000       0.00000       0.00000  
                                                                                                                               650.00000       1.67500       0.14000       8.33000       0.29070      23.50000      50.78752      25.71248      56.00000       0.20238       0.37051       0.00000       0.00000       0.00000  
                                                                                                                              1300.00000       1.67500       0.14000       8.33000       0.29070      23.50000      50.78752      25.71248      68.00000       0.20238       0.37051       0.00000       0.00000       0.00000  
LEG_868                           6                 D    1500.00000       0.00000       0.00000  Some_shit                  
                                                                                                                               150.00000       1.43050       0.21000      12.50000       1.74420      14.50000      69.67068      15.82932       7.00000       0.17153       0.34305       0.00000       0.00000       0.00000  
                                                                                                                               300.00000       1.63050       0.20000       6.25000       1.74420      14.50000      69.67068      15.82932       7.00000       0.17445       0.34305       0.00000       0.00000       0.00000  
                                                                                                                               500.00000       1.64900       0.18000       6.25000       0.29070      14.50000      69.67068      15.82932      19.00000       0.18152       0.43785       0.00000       0.00000       0.00000  
                                                                                                                               650.00000       1.77500       0.09000      16.67000       0.00010      10.00000      21.07723      68.92277      26.00000       0.24885       0.23431       0.00000       0.00000       0.00000  
                                                                                                                              1250.00000       1.51750       0.04000     158.33000       0.00010       2.50000       3.27862      94.22138      21.00000       0.33653       0.08616       0.00000       0.00000       0.00000  
                                                                                                                              1500.00000       1.51750       0.04000     158.33000       0.00010       2.50000       3.27862      94.22138      31.00000       0.33653       0.08616       0.00000       0.00000       0.00000  
LEG_869                           3                 C     600.00000       0.00000       0.00000  Some_shit                  
                                                                                                                                50.00000       1.23050       0.25000      20.83000       6.68610      14.50000      69.67068      15.82932       7.00000       0.16296       0.32974       0.00000       0.00000       0.00000  
                                                                                                                               250.00000       1.51150       0.19000      14.58000       3.48840      23.50000      50.78752      25.71248      26.00000       0.17776       0.27906       0.00000       0.00000       0.00000  
                                                                                                                               600.00000       1.62000       0.17000       8.33000       0.87210      12.50000      47.98727      39.51273      93.00000       0.18579       0.33284       0.00000       0.00000       0.00000  
LEG_870                           3                 A    1300.00000       0.00000       0.00000  Some_shit                  
                                                                                                                               140.00000       1.32250       0.12000      77.08000       1.74420       2.50000      13.36536      84.13464       6.00000       0.21753       0.11757       0.00000       0.00000       0.00000  