time.sim: written by SWAT+ editor v2.1.0 on 2023-02-24 18:06 for SWAT+ rev.60.5.4 and edited with SWATfarmR 0.4.1 on 2024-05-22 11:09:33.926325
day_start  yrc_start   day_end   yrc_end      step  
        0       2006         0      2020         0
