topography.hyd: written by SWAT+ editor v2.1.0 on 2023-02-24 18:07 for SWAT+ rev.60.5.4
name                       slp       slp_len       lat_len      dist_cha         depos  
topohru0001            0.05704      30.00000      30.00000     121.00000       0.00000  
topohru0002            0.08248      30.00000      30.00000     121.00000       0.00000  
topohru0003            0.06368      30.00000      30.00000     121.00000       0.00000  
topohru0004            0.07771      30.00000      30.00000     121.00000       0.00000  
topohru0005            0.06914      30.00000      30.00000     121.00000       0.00000  
topohru0006            0.04361      30.00000      30.00000     121.00000       0.00000  
topohru0007            0.07019      30.00000      30.00000     121.00000       0.00000  
topohru0008            0.05673      30.00000      30.00000     121.00000       0.00000  
topohru0009            0.06218      30.00000      30.00000     121.00000       0.00000  
topohru0010            0.05735      30.00000      30.00000     121.00000       0.00000  
topohru0011            0.07611      30.00000      30.00000     121.00000       0.00000  
topohru0012            0.07292      30.00000      30.00000     121.00000       0.00000  
topohru0013            0.06419      30.00000      30.00000     121.00000       0.00000  
topohru0014            0.08065      30.00000      30.00000     121.00000       0.00000  
topohru0015            0.07165      30.00000      30.00000     121.00000       0.00000  
topohru0016            0.08272      30.00000      30.00000     121.00000       0.00000  
topohru0017            0.06864      30.00000      30.00000     121.00000       0.00000  
topohru0018            0.06412      30.00000      30.00000     121.00000       0.00000  
topohru0019            0.08737      30.00000      30.00000     121.00000       0.00000  
topohru0020            0.06586      30.00000      30.00000     121.00000       0.00000  
topohru0021            0.07468      30.00000      30.00000     121.00000       0.00000  
topohru0022            0.07644      30.00000      30.00000     121.00000       0.00000  
topohru0023            0.06854      30.00000      30.00000     121.00000       0.00000  
topohru0024            0.01385      30.00000      30.00000     121.00000       0.00000  
topohru0025            0.03373      30.00000      30.00000     121.00000       0.00000  
topohru0026            0.17352      30.00000      30.00000     121.00000       0.00000  
topohru0027            0.04214      30.00000      30.00000     121.00000       0.00000  
topohru0028            0.06247      30.00000      30.00000     121.00000       0.00000  
topohru0029            0.03340      30.00000      30.00000     121.00000       0.00000  
topohru0030            0.05675      30.00000      30.00000     121.00000       0.00000  
topohru0031            0.02037      30.00000      30.00000     121.00000       0.00000  
topohru0032            0.12379      30.00000      30.00000     121.00000       0.00000  
topohru0033            0.06909      30.00000      30.00000     121.00000       0.00000  
topohru0034            0.03303      30.00000      30.00000     121.00000       0.00000  
topohru0035            0.03931      30.00000      30.00000     121.00000       0.00000  
topohru0036            0.10872      30.00000      30.00000     121.00000       0.00000  
topohru0037            0.04791      30.00000      30.00000     121.00000       0.00000  
topohru0038            0.04269      30.00000      30.00000     121.00000       0.00000  
topohru0039            0.02125      30.00000      30.00000     121.00000       0.00000  
topohru0040            0.03082      30.00000      30.00000     121.00000       0.00000  
topohru0041            0.05640      30.00000      30.00000     121.00000       0.00000  
topohru0042            0.02882      30.00000      30.00000     121.00000       0.00000  
topohru0043            0.03080      30.00000      30.00000     121.00000       0.00000  
topohru0044            0.02511      30.00000      30.00000     121.00000       0.00000  
topohru0045            0.01965      30.00000      30.00000     121.00000       0.00000  
topohru0046            0.02756      30.00000      30.00000     121.00000       0.00000  
topohru0047            0.01834      30.00000      30.00000     121.00000       0.00000  
topohru0048            0.02081      30.00000      30.00000     121.00000       0.00000  
topohru0049            0.06053      30.00000      30.00000     121.00000       0.00000  
topohru0050            0.03960      30.00000      30.00000     121.00000       0.00000  
topohru0051            0.02719      30.00000      30.00000     121.00000       0.00000  
topohru0052            0.07581      30.00000      30.00000     121.00000       0.00000  
topohru0053            0.00188      30.00000      30.00000     121.00000       0.00000  
topohru0054            0.02029      30.00000      30.00000     121.00000       0.00000  
topohru0055            0.03724      30.00000      30.00000     121.00000       0.00000  
topohru0056            0.03112      30.00000      30.00000     121.00000       0.00000  
topohru0057            0.03168      30.00000      30.00000     121.00000       0.00000  
topohru0058            0.02308      30.00000      30.00000     121.00000       0.00000  
topohru0059            0.02350      30.00000      30.00000     121.00000       0.00000  
topohru0060            0.02755      30.00000      30.00000     121.00000       0.00000  
topohru0061            0.06855      30.00000      30.00000     121.00000       0.00000  
topohru0062            0.08147      30.00000      30.00000     121.00000       0.00000  
topohru0063            0.01837      30.00000      30.00000     121.00000       0.00000  
topohru0064            0.01800      30.00000      30.00000     121.00000       0.00000  
topohru0065            0.02146      30.00000      30.00000     121.00000       0.00000  
topohru0066            0.02229      30.00000      30.00000     121.00000       0.00000  
topohru0067            0.03085      30.00000      30.00000     121.00000       0.00000  
topohru0068            0.03671      30.00000      30.00000     121.00000       0.00000  
topohru0069            0.03507      30.00000      30.00000     121.00000       0.00000  
topohru0070            0.03913      30.00000      30.00000     121.00000       0.00000  
topohru0071            0.06450      30.00000      30.00000     121.00000       0.00000  
topohru0072            0.02143      30.00000      30.00000     121.00000       0.00000  
topohru0073            0.02305      30.00000      30.00000     121.00000       0.00000  
topohru0074            0.01902      30.00000      30.00000     121.00000       0.00000  
topohru0075            0.02305      30.00000      30.00000     121.00000       0.00000  
topohru0076            0.02745      30.00000      30.00000     121.00000       0.00000  
topohru0077            0.02516      30.00000      30.00000     121.00000       0.00000  
topohru0078            0.01440      30.00000      30.00000     121.00000       0.00000  
topohru0079            0.01938      30.00000      30.00000     121.00000       0.00000  
topohru0080            0.02109      30.00000      30.00000     121.00000       0.00000  
topohru0081            0.02507      30.00000      30.00000     121.00000       0.00000  
topohru0082            0.02119      30.00000      30.00000     121.00000       0.00000  
topohru0083            0.02319      30.00000      30.00000     121.00000       0.00000  
topohru0084            0.01788      30.00000      30.00000     121.00000       0.00000  
topohru0085            0.04353      30.00000      30.00000     121.00000       0.00000  
topohru0086            0.03317      30.00000      30.00000     121.00000       0.00000  
topohru0087            0.04001      30.00000      30.00000     121.00000       0.00000  
topohru0088            0.05339      30.00000      30.00000     121.00000       0.00000  
topohru0089            0.04330      30.00000      30.00000     121.00000       0.00000  
topohru0090            0.05707      30.00000      30.00000     121.00000       0.00000  
topohru0091            0.05001      30.00000      30.00000     121.00000       0.00000  
topohru0092            0.04553      30.00000      30.00000     121.00000       0.00000  
topohru0093            0.02876      30.00000      30.00000     121.00000       0.00000  
topohru0094            0.02912      30.00000      30.00000     121.00000       0.00000  
topohru0095            0.03103      30.00000      30.00000     121.00000       0.00000  
topohru0096            0.04525      30.00000      30.00000     121.00000       0.00000  
topohru0097            0.02774      30.00000      30.00000     121.00000       0.00000  
topohru0098            0.05436      30.00000      30.00000     121.00000       0.00000  
topohru0099            0.03595      30.00000      30.00000     121.00000       0.00000  
topohru0100            0.08057      30.00000      30.00000     121.00000       0.00000  
topohru0101            0.05774      30.00000      30.00000     121.00000       0.00000  
topohru0102            0.01919      30.00000      30.00000     121.00000       0.00000  
topohru0103            0.04725      30.00000      30.00000     121.00000       0.00000  
topohru0104            0.01659      30.00000      30.00000     121.00000       0.00000  
topohru0105            0.02715      30.00000      30.00000     121.00000       0.00000  
topohru0106            0.03113      30.00000      30.00000     121.00000       0.00000  
topohru0107            0.07741      30.00000      30.00000     121.00000       0.00000  
topohru0108            0.04190      30.00000      30.00000     121.00000       0.00000  
topohru0109            0.05593      30.00000      30.00000     121.00000       0.00000  
topohru0110            0.09031      30.00000      30.00000     121.00000       0.00000  
topohru0111            0.03430      30.00000      30.00000     121.00000       0.00000  
topohru0112            0.03325      30.00000      30.00000     121.00000       0.00000  
topohru0113            0.04744      30.00000      30.00000     121.00000       0.00000  
topohru0114            0.03725      30.00000      30.00000     121.00000       0.00000  
topohru0115            0.05142      30.00000      30.00000     121.00000       0.00000  
topohru0116            0.05487      30.00000      30.00000     121.00000       0.00000  
topohru0117            0.07744      30.00000      30.00000     121.00000       0.00000  
topohru0118            0.03033      30.00000      30.00000     121.00000       0.00000  
topohru0119            0.03234      30.00000      30.00000     121.00000       0.00000  
topohru0120            0.02057      30.00000      30.00000     121.00000       0.00000  
topohru0121            0.01491      30.00000      30.00000     121.00000       0.00000  
topohru0122            0.03854      30.00000      30.00000     121.00000       0.00000  
topohru0123            0.02184      30.00000      30.00000     121.00000       0.00000  
topohru0124            0.01742      30.00000      30.00000     121.00000       0.00000  
topohru0125            0.01479      30.00000      30.00000     121.00000       0.00000  
topohru0126            0.01902      30.00000      30.00000     121.00000       0.00000  
topohru0127            0.08686      30.00000      30.00000     121.00000       0.00000  
topohru0128            0.03517      30.00000      30.00000     121.00000       0.00000  
topohru0129            0.01491      30.00000      30.00000     121.00000       0.00000  
topohru0130            0.04567      30.00000      30.00000     121.00000       0.00000  
topohru0131            0.07900      30.00000      30.00000     121.00000       0.00000  
topohru0132            0.02855      30.00000      30.00000     121.00000       0.00000  
topohru0133            0.03632      30.00000      30.00000     121.00000       0.00000  
topohru0134            0.04467      30.00000      30.00000     121.00000       0.00000  
topohru0135            0.05983      30.00000      30.00000     121.00000       0.00000  
topohru0136            0.02419      30.00000      30.00000     121.00000       0.00000  
topohru0137            0.07962      30.00000      30.00000     121.00000       0.00000  
topohru0138            0.04526      30.00000      30.00000     121.00000       0.00000  
topohru0139            0.03464      30.00000      30.00000     121.00000       0.00000  
topohru0140            0.05038      30.00000      30.00000     121.00000       0.00000  
topohru0141            0.05649      30.00000      30.00000     121.00000       0.00000  
topohru0142            0.04111      30.00000      30.00000     121.00000       0.00000  
topohru0143            0.02446      30.00000      30.00000     121.00000       0.00000  
topohru0144            0.05721      30.00000      30.00000     121.00000       0.00000  
topohru0145            0.03576      30.00000      30.00000     121.00000       0.00000  
topohru0146            0.04000      30.00000      30.00000     121.00000       0.00000  
topohru0147            0.05986      30.00000      30.00000     121.00000       0.00000  
topohru0148            0.04840      30.00000      30.00000     121.00000       0.00000  
topohru0149            0.03191      30.00000      30.00000     121.00000       0.00000  
topohru0150            0.03219      30.00000      30.00000     121.00000       0.00000  
topohru0151            0.06679      30.00000      30.00000     121.00000       0.00000  
topohru0152            0.07567      30.00000      30.00000     121.00000       0.00000  
topohru0153            0.00197      30.00000      30.00000     121.00000       0.00000  
topohru0154            0.02080      30.00000      30.00000     121.00000       0.00000  
topohru0155            0.03030      30.00000      30.00000     121.00000       0.00000  
topohru0156            0.03565      30.00000      30.00000     121.00000       0.00000  
topohru0157            0.03898      30.00000      30.00000     121.00000       0.00000  
topohru0158            0.02346      30.00000      30.00000     121.00000       0.00000  
topohru0159            0.08152      30.00000      30.00000     121.00000       0.00000  
topohru0160            0.06175      30.00000      30.00000     121.00000       0.00000  
topohru0161            0.01470      30.00000      30.00000     121.00000       0.00000  
topohru0162            0.01847      30.00000      30.00000     121.00000       0.00000  
topohru0163            0.06399      30.00000      30.00000     121.00000       0.00000  
topohru0164            0.09144      30.00000      30.00000     121.00000       0.00000  
topohru0165            0.07397      30.00000      30.00000     121.00000       0.00000  
topohru0166            0.03900      30.00000      30.00000     121.00000       0.00000  
topohru0167            0.07521      30.00000      30.00000     121.00000       0.00000  
topohru0168            0.04964      30.00000      30.00000     121.00000       0.00000  
topohru0169            0.07318      30.00000      30.00000     121.00000       0.00000  
topohru0170            0.05028      30.00000      30.00000     121.00000       0.00000  
topohru0171            0.07158      30.00000      30.00000     121.00000       0.00000  
topohru0172            0.05892      30.00000      30.00000     121.00000       0.00000  
topohru0173            0.05800      30.00000      30.00000     121.00000       0.00000  
topohru0174            0.05947      30.00000      30.00000     121.00000       0.00000  
topohru0175            0.08904      30.00000      30.00000     121.00000       0.00000  
topohru0176            0.03579      30.00000      30.00000     121.00000       0.00000  
topohru0177            0.04579      30.00000      30.00000     121.00000       0.00000  
topohru0178            0.04021      30.00000      30.00000     121.00000       0.00000  
topohru0179            0.05545      30.00000      30.00000     121.00000       0.00000  
topohru0180            0.01473      30.00000      30.00000     121.00000       0.00000  
topohru0181            0.04601      30.00000      30.00000     121.00000       0.00000  
topohru0182            0.01711      30.00000      30.00000     121.00000       0.00000  
topohru0183            0.04853      30.00000      30.00000     121.00000       0.00000  
topohru0184            0.04669      30.00000      30.00000     121.00000       0.00000  
topohru0185            0.06119      30.00000      30.00000     121.00000       0.00000  
topohru0186            0.04302      30.00000      30.00000     121.00000       0.00000  
topohru0187            0.08680      30.00000      30.00000     121.00000       0.00000  
topohru0188            0.06057      30.00000      30.00000     121.00000       0.00000  
topohru0189            0.02039      30.00000      30.00000     121.00000       0.00000  
topohru0190            0.01375      30.00000      30.00000     121.00000       0.00000  
topohru0191            0.01296      30.00000      30.00000     121.00000       0.00000  
topohru0192            0.07292      30.00000      30.00000     121.00000       0.00000  
topohru0193            0.06246      30.00000      30.00000     121.00000       0.00000  
topohru0194            0.05517      30.00000      30.00000     121.00000       0.00000  
topohru0195            0.03248      30.00000      30.00000     121.00000       0.00000  
topohru0196            0.06566      30.00000      30.00000     121.00000       0.00000  
topohru0197            0.03725      30.00000      30.00000     121.00000       0.00000  
topohru0198            0.04170      30.00000      30.00000     121.00000       0.00000  
topohru0199            0.03117      30.00000      30.00000     121.00000       0.00000  
topohru0200            0.02924      30.00000      30.00000     121.00000       0.00000  
topohru0201            0.00091      30.00000      30.00000     121.00000       0.00000  
topohru0202            0.03684      30.00000      30.00000     121.00000       0.00000  
topohru0203            0.02973      30.00000      30.00000     121.00000       0.00000  
topohru0204            0.02747      30.00000      30.00000     121.00000       0.00000  
topohru0205            0.07924      30.00000      30.00000     121.00000       0.00000  
topohru0206            0.10320      30.00000      30.00000     121.00000       0.00000  
topohru0207            0.09088      30.00000      30.00000     121.00000       0.00000  
topohru0208            0.04503      30.00000      30.00000     121.00000       0.00000  
topohru0209            0.03133      30.00000      30.00000     121.00000       0.00000  
topohru0210            0.02659      30.00000      30.00000     121.00000       0.00000  
topohru0211            0.05829      30.00000      30.00000     121.00000       0.00000  
topohru0212            0.06456      30.00000      30.00000     121.00000       0.00000  
topohru0213            0.01214      30.00000      30.00000     121.00000       0.00000  
topohru0214            0.04647      30.00000      30.00000     121.00000       0.00000  
topohru0215            0.06733      30.00000      30.00000     121.00000       0.00000  
topohru0216            0.05398      30.00000      30.00000     121.00000       0.00000  
topohru0217            0.05149      30.00000      30.00000     121.00000       0.00000  
topohru0218            0.04742      30.00000      30.00000     121.00000       0.00000  
topohru0219            0.07110      30.00000      30.00000     121.00000       0.00000  
topohru0220            0.06075      30.00000      30.00000     121.00000       0.00000  
topohru0221            0.08810      30.00000      30.00000     121.00000       0.00000  
topohru0222            0.03444      30.00000      30.00000     121.00000       0.00000  
topohru0223            0.04725      30.00000      30.00000     121.00000       0.00000  
topohru0224            0.07504      30.00000      30.00000     121.00000       0.00000  
topohru0225            0.04437      30.00000      30.00000     121.00000       0.00000  
topohru0226            0.07256      30.00000      30.00000     121.00000       0.00000  
topohru0227            0.03217      30.00000      30.00000     121.00000       0.00000  
topohru0228            0.17775      30.00000      30.00000     121.00000       0.00000  
topohru0229            0.03467      30.00000      30.00000     121.00000       0.00000  
topohru0230            0.06915      30.00000      30.00000     121.00000       0.00000  
topohru0231            0.04595      30.00000      30.00000     121.00000       0.00000  
topohru0232            0.05086      30.00000      30.00000     121.00000       0.00000  
topohru0233            0.02654      30.00000      30.00000     121.00000       0.00000  
topohru0234            0.02538      30.00000      30.00000     121.00000       0.00000  
topohru0235            0.11855      30.00000      30.00000     121.00000       0.00000  
topohru0236            0.05492      30.00000      30.00000     121.00000       0.00000  
topohru0237            0.03888      30.00000      30.00000     121.00000       0.00000  
topohru0238            0.03134      30.00000      30.00000     121.00000       0.00000  
topohru0239            0.02788      30.00000      30.00000     121.00000       0.00000  
topohru0240            0.02896      30.00000      30.00000     121.00000       0.00000  
topohru0241            0.07639      30.00000      30.00000     121.00000       0.00000  
topohru0242            0.05412      30.00000      30.00000     121.00000       0.00000  
topohru0243            0.06882      30.00000      30.00000     121.00000       0.00000  
topohru0244            0.03270      30.00000      30.00000     121.00000       0.00000  
topohru0245            0.02107      30.00000      30.00000     121.00000       0.00000  
topohru0246            0.08489      30.00000      30.00000     121.00000       0.00000  
topohru0247            0.05159      30.00000      30.00000     121.00000       0.00000  
topohru0248            0.07461      30.00000      30.00000     121.00000       0.00000  
topohru0249            0.01358      30.00000      30.00000     121.00000       0.00000  
topohru0250            0.01563      30.00000      30.00000     121.00000       0.00000  
topohru0251            0.03063      30.00000      30.00000     121.00000       0.00000  
topohru0252            0.03638      30.00000      30.00000     121.00000       0.00000  
topohru0253            0.01000      30.00000      30.00000     121.00000       0.00000  
topohru0254            0.01510      30.00000      30.00000     121.00000       0.00000  
topohru0255            0.01937      30.00000      30.00000     121.00000       0.00000  
topohru0256            0.04247      30.00000      30.00000     121.00000       0.00000  
topohru0257            0.05136      30.00000      30.00000     121.00000       0.00000  
topohru0258            0.03302      30.00000      30.00000     121.00000       0.00000  
topohru0259            0.04041      30.00000      30.00000     121.00000       0.00000  
topohru0260            0.02545      30.00000      30.00000     121.00000       0.00000  
topohru0261            0.03449      30.00000      30.00000     121.00000       0.00000  
topohru0262            0.03115      30.00000      30.00000     121.00000       0.00000  
topohru0263            0.02885      30.00000      30.00000     121.00000       0.00000  
topohru0264            0.01578      30.00000      30.00000     121.00000       0.00000  
topohru0265            0.02189      30.00000      30.00000     121.00000       0.00000  
topohru0266            0.01890      30.00000      30.00000     121.00000       0.00000  
topohru0267            0.04209      30.00000      30.00000     121.00000       0.00000  
topohru0268            0.03501      30.00000      30.00000     121.00000       0.00000  
topohru0269            0.05588      30.00000      30.00000     121.00000       0.00000  
topohru0270            0.01901      30.00000      30.00000     121.00000       0.00000  
topohru0271            0.04225      30.00000      30.00000     121.00000       0.00000  
topohru0272            0.03370      30.00000      30.00000     121.00000       0.00000  
topohru0273            0.06901      30.00000      30.00000     121.00000       0.00000  
topohru0274            0.05132      30.00000      30.00000     121.00000       0.00000  
topohru0275            0.05005      30.00000      30.00000     121.00000       0.00000  
topohru0276            0.01883      30.00000      30.00000     121.00000       0.00000  
topohru0277            0.04703      30.00000      30.00000     121.00000       0.00000  
topohru0278            0.03772      30.00000      30.00000     121.00000       0.00000  
topohru0279            0.02005      30.00000      30.00000     121.00000       0.00000  
topohru0280            0.02678      30.00000      30.00000     121.00000       0.00000  
topohru0281            0.01868      30.00000      30.00000     121.00000       0.00000  
topohru0282            0.01120      30.00000      30.00000     121.00000       0.00000  
topohru0283            0.04228      30.00000      30.00000     121.00000       0.00000  
topohru0284            0.06388      30.00000      30.00000     121.00000       0.00000  
topohru0285            0.05348      30.00000      30.00000     121.00000       0.00000  
topohru0286            0.04464      30.00000      30.00000     121.00000       0.00000  
topohru0287            0.03312      30.00000      30.00000     121.00000       0.00000  
topohru0288            0.05131      30.00000      30.00000     121.00000       0.00000  
topohru0289            0.05670      30.00000      30.00000     121.00000       0.00000  
topohru0290            0.02072      30.00000      30.00000     121.00000       0.00000  
topohru0291            0.02625      30.00000      30.00000     121.00000       0.00000  
topohru0292            0.03022      30.00000      30.00000     121.00000       0.00000  
topohru0293            0.03233      30.00000      30.00000     121.00000       0.00000  
topohru0294            0.03827      30.00000      30.00000     121.00000       0.00000  
topohru0295            0.04986      30.00000      30.00000     121.00000       0.00000  
topohru0296            0.05398      30.00000      30.00000     121.00000       0.00000  
topohru0297            0.04637      30.00000      30.00000     121.00000       0.00000  
topohru0298            0.03599      30.00000      30.00000     121.00000       0.00000  
topohru0299            0.06743      30.00000      30.00000     121.00000       0.00000  
topohru0300            0.04885      30.00000      30.00000     121.00000       0.00000  
topohru0301            0.04996      30.00000      30.00000     121.00000       0.00000  
topohru0302            0.03826      30.00000      30.00000     121.00000       0.00000  
topohru0303            0.02483      30.00000      30.00000     121.00000       0.00000  
topohru0304            0.04991      30.00000      30.00000     121.00000       0.00000  
topohru0305            0.08708      30.00000      30.00000     121.00000       0.00000  
topohru0306            0.05502      30.00000      30.00000     121.00000       0.00000  
topohru0307            0.03536      30.00000      30.00000     121.00000       0.00000  
topohru0308            0.02441      30.00000      30.00000     121.00000       0.00000  
topohru0309            0.04348      30.00000      30.00000     121.00000       0.00000  
topohru0310            0.08136      30.00000      30.00000     121.00000       0.00000  
topohru0311            0.01263      30.00000      30.00000     121.00000       0.00000  
topohru0312            0.01432      30.00000      30.00000     121.00000       0.00000  
topohru0313            0.01386      30.00000      30.00000     121.00000       0.00000  
topohru0314            0.03516      30.00000      30.00000     121.00000       0.00000  
topohru0315            0.04735      30.00000      30.00000     121.00000       0.00000  
topohru0316            0.04962      30.00000      30.00000     121.00000       0.00000  
topohru0317            0.04682      30.00000      30.00000     121.00000       0.00000  
topohru0318            0.06490      30.00000      30.00000     121.00000       0.00000  
topohru0319            0.03952      30.00000      30.00000     121.00000       0.00000  
topohru0320            0.05265      30.00000      30.00000     121.00000       0.00000  
topohru0321            0.01066      30.00000      30.00000     121.00000       0.00000  
topohru0322            0.07586      30.00000      30.00000     121.00000       0.00000  
topohru0323            0.05827      30.00000      30.00000     121.00000       0.00000  
topohru0324            0.11714      30.00000      30.00000     121.00000       0.00000  
topohru0325            0.14713      30.00000      30.00000     121.00000       0.00000  
topohru0326            0.05665      30.00000      30.00000     121.00000       0.00000  
topohru0327            0.11706      30.00000      30.00000     121.00000       0.00000  
topohru0328            0.06343      30.00000      30.00000     121.00000       0.00000  
topohru0329            0.03397      30.00000      30.00000     121.00000       0.00000  
topohru0330            0.05542      30.00000      30.00000     121.00000       0.00000  
topohru0331            0.03772      30.00000      30.00000     121.00000       0.00000  
topohru0332            0.05432      30.00000      30.00000     121.00000       0.00000  
topohru0333            0.05226      30.00000      30.00000     121.00000       0.00000  
topohru0334            0.04479      30.00000      30.00000     121.00000       0.00000  
topohru0335            0.17180      30.00000      30.00000     121.00000       0.00000  