chandeg.con: written by SWAT+ editor v2.2.0 on 2024-01-15 12:53 for SWAT+ rev.60.5.4
      id  name                gis_id          area           lat           lon          elev      lcha               wst       cst      ovfl      rule   out_tot       obj_typ    obj_id       hyd_typ          frac  
       1  cha01                    0      23.91440      46.71698      17.74870     166.51604         1         s467n177e         0         0         0         1           sdc         5           tot       1.00000  
       2  cha02                    0      58.27370      46.68023      17.76548     150.08452         2         s467n178e         0         0         0         1           sdc        10           tot       1.00000  
       3  cha03                    0       2.01147      46.71891      17.76702     136.49206         3         s467n178e         0         0         0         1           sdc         7           tot       1.00000  
       4  cha04                    0      14.38543      46.63292      17.77745     192.76556         4         s466n178e         0         0         0         1           sdc        21           tot       1.00000  
       5  cha05                    0     242.83490      46.71622      17.77485     127.96701         5         s467n178e         0         0         0         1           sdc         7           tot       1.00000  
       6  cha06                    0     239.87200      46.70252      17.77317     132.52304         6         s467n178e         0         0         0         1           sdc         5           tot       1.00000  
       7  cha07                    0     245.31090      46.72277      17.77635     125.76504         7         s467n178e         0         0         0         0  
       8  cha08                    0       5.80000      46.64529      17.78013     186.92500         8         s466n178e         0         0         0         1           sdc        19           tot       1.00000  
       9  cha09                    0       5.86072      46.69444      17.78155     159.70951         9         s467n178e         0         0         0         1           sdc         6           tot       1.00000  
      10  cha10                    0     208.84570      46.68661      17.77622     137.71150        10         s467n178e         0         0         0         1           sdc         6           tot       1.00000  
      11  cha11                    0       3.76610      46.65888      17.77925     173.11060        11         s467n178e         0         0         0         1           sdc        17           tot       1.00000  
      12  cha12                    0     206.19870      46.67651      17.77895     140.94753        12         s467n178e         0         0         0         1           sdc        10           tot       1.00000  
      13  cha13                    0       2.32616      46.67170      17.77969     144.84900        13         s467n178e         0         0         0         1           sdc        12           tot       1.00000  
      14  cha14                    0     100.60886      46.66833      17.78239     146.30973        14         s467n178e         0         0         0         1           sdc        12           tot       1.00000  
      15  cha15                    0       1.86684      46.65249      17.78437     162.86400        15         s467n178e         0         0         0         1           sdc        18           tot       1.00000  
      16  cha16                    0       0.73329      46.66514      17.78587     150.81653        16         s467n178e         0         0         0         1           sdc        14           tot       1.00000  
      17  cha17                    0      99.20420      46.66247      17.78515     148.72005        17         s467n178e         0         0         0         1           sdc        14           tot       1.00000  
      18  cha18                    0      87.39608      46.65632      17.78770     151.33470        18         s467n178e         0         0         0         1           sdc        17           tot       1.00000  
      19  cha19                    0      85.00830      46.65014      17.79054     152.71967        19         s467n178e         0         0         0         1           sdc        18           tot       1.00000  
      20  cha20                    0      83.08910      46.63526      17.79423     157.12505        20         s466n178e         0         0         0         1           sdc        19           tot       1.00000  
      21  cha21                    0      22.20432      46.62257      17.79560     163.52544        21         s466n178e         0         0         0         1           sdc        20           tot       1.00000  
      22  cha22                    0      22.87190      46.61273      17.80081     168.28768        22         s466n178e         0         0         0         1           sdc        20           tot       1.00000  
      23  cha23                    0       8.59120      46.59871      17.80079     180.55502        23         s466n178e         0         0         0         1           sdc        22           tot       1.00000  
      24  cha24                    0       7.90420      46.60064      17.80383     174.00052        24         s466n178e         0         0         0         1           sdc        22           tot       1.00000  
