channel-lte.cha: written by SWAT+ editor v2.2.0 on 2024-01-15 12:53 for SWAT+ rev.60.5.4
      id  name                       cha_ini           cha_hyd           cha_sed           cha_nut  
       1  cha01                     initcha1          hydcha01              null           nutcha1  
       2  cha02                     initcha1          hydcha02              null           nutcha1  
       3  cha03                     initcha1          hydcha03              null           nutcha1  
       4  cha04                     initcha1          hydcha04              null           nutcha1  
       5  cha05                     initcha1          hydcha05              null           nutcha1  
       6  cha06                     initcha1          hydcha06              null           nutcha1  
       7  cha07                     initcha1          hydcha07              null           nutcha1  
       8  cha08                     initcha1          hydcha08              null           nutcha1  
       9  cha09                     initcha1          hydcha09              null           nutcha1  
      10  cha10                     initcha1          hydcha10              null           nutcha1  
      11  cha11                     initcha1          hydcha11              null           nutcha1  
      12  cha12                     initcha1          hydcha12              null           nutcha1  
      13  cha13                     initcha1          hydcha13              null           nutcha1  
      14  cha14                     initcha1          hydcha14              null           nutcha1  
      15  cha15                     initcha1          hydcha15              null           nutcha1  
      16  cha16                     initcha1          hydcha16              null           nutcha1  
      17  cha17                     initcha1          hydcha17              null           nutcha1  
      18  cha18                     initcha1          hydcha18              null           nutcha1  
      19  cha19                     initcha1          hydcha19              null           nutcha1  
      20  cha20                     initcha1          hydcha20              null           nutcha1  
      21  cha21                     initcha1          hydcha21              null           nutcha1  
      22  cha22                     initcha1          hydcha22              null           nutcha1  
      23  cha23                     initcha1          hydcha23              null           nutcha1  
      24  cha24                     initcha1          hydcha24              null           nutcha1  
