hru.con: written by SWAT+ editor v2.2.0 on 2024-01-15 12:53 for SWAT+ rev.60.5.4
      id  name                gis_id          area           lat           lon          elev       hru               wst       cst      ovfl      rule   out_tot  
       1  hru0001                  0       0.17182      46.70919      17.76162     145.11379         1         s467n178e         0         0         0         0  
       2  hru0002                  0       0.21694      46.70824      17.76002     152.88861         2         s467n178e         0         0         0         0  
       3  hru0003                  0       1.44922      46.70259      17.76686     139.52828         3         s467n178e         0         0         0         0  
       4  hru0004                  0       0.48225      46.70598      17.76511     139.62738         4         s467n178e         0         0         0         0  
       5  hru0005                  0       0.58485      46.70556      17.76529     139.31944         5         s467n178e         0         0         0         0  
       6  hru0006                  0       0.05551      46.70551      17.76286     142.66782         6         s467n178e         0         0         0         0  
       7  hru0007                  0       1.09197      46.70822      17.76464     137.90100         7         s467n178e         0         0         0         0  
       8  hru0008                  0       0.26372      46.70898      17.76588     137.45433         8         s467n178e         0         0         0         0  
       9  hru0009                  0       1.05947      46.70913      17.76400     136.57782         9         s467n178e         0         0         0         0  
      10  hru0010                  0       0.14653      46.70538      17.76809     136.23984        10         s467n178e         0         0         0         0  
      11  hru0011                  0       0.10926      46.70552      17.76752     137.35562        11         s467n178e         0         0         0         0  
      12  hru0012                  0       0.62707      46.70573      17.76916     134.83096        12         s467n178e         0         0         0         0  
      13  hru0013                  0      20.35493      46.65766      17.73179     266.47323        13         s467n177e         0         0         0         0  
      14  hru0014                  0       1.79695      46.70772      17.76335     140.12004        14         s467n178e         0         0         0         0  
      15  hru0015                  0      20.28150      46.61346      17.79547     180.60092        15         s466n178e         0         0         0         0  
      16  hru0016                  0       2.37951      46.68263      17.76103     165.30384        16         s467n178e         0         0         0         0  
      17  hru0017                  0       0.09655      46.70876      17.76189     144.49167        17         s467n178e         0         0         0         0  
      18  hru0018                  0       0.69155      46.70741      17.76449     138.00453        18         s467n178e         0         0         0         0  
      19  hru0019                  0       1.09199      46.70780      17.76241     143.43137        19         s467n178e         0         0         0         0  
      20  hru0020                  0       0.52360      46.70880      17.76270     140.87538        20         s467n178e         0         0         0         0  
      21  hru0021                  0       0.09160      46.72610      17.78793     157.56754        21         s467n178e         0         0         0         0  
      22  hru0022                  0       1.30301      46.71291      17.76750     134.35706        22         s467n178e         0         0         0         0  
      23  hru0023                  0       0.02494      46.72561      17.78830     155.49560        23         s467n178e         0         0         0         0  
      24  hru0024                  0       0.10679      46.72523      17.78744     153.99180        24         s467n178e         0         0         0         0  
      25  hru0025                  0       1.66371      46.70373      17.76213     152.74429        25         s467n178e         0         0         0         0  
      26  hru0026                  0       0.29910      46.70227      17.76272     157.45237        26         s467n178e         0         0         0         0  
      27  hru0027                  0       0.22739      46.70301      17.76193     158.65664        27         s467n178e         0         0         0         0  
      28  hru0028                  0       0.29032      46.70264      17.76245     157.70682        28         s467n178e         0         0         0         0  
      29  hru0029                  0       1.24522      46.71044      17.76709     135.87146        29         s467n178e         0         0         0         0  
      30  hru0030                  0       0.65687      46.71087      17.76758     134.46161        30         s467n178e         0         0         0         0  
      31  hru0031                  0       0.25214      46.70292      17.76226     157.51049        31         s467n178e         0         0         0         0  
      32  hru0032                  0       0.48527      46.70768      17.75950     156.73243        32         s467n178e         0         0         0         0  
      33  hru0033                  0       1.54661      46.66447      17.78316     147.38434        33         s467n178e         0         0         0         0  
      34  hru0034                  0       0.14960      46.66758      17.78332     149.16767        34         s467n178e         0         0         0         0  
      35  hru0035                  0       2.63864      46.67215      17.78314     147.21324        35         s467n178e         0         0         0         0  
      36  hru0036                  0       1.03385      46.67704      17.78138     145.44632        36         s467n178e         0         0         0         0  
      37  hru0037                  0       1.81329      46.67561      17.78190     146.73475        37         s467n178e         0         0         0         0  
      38  hru0038                  0       0.04031      46.66693      17.78272     145.95018        38         s467n178e         0         0         0         0  
      39  hru0039                  0       5.29119      46.67962      17.78042     145.11989        39         s467n178e         0         0         0         0  
      40  hru0040                  0       1.14310      46.67644      17.78160     146.19873        40         s467n178e         0         0         0         0  
      41  hru0041                  0       4.70243      46.66625      17.78491     148.23061        41         s467n178e         0         0         0         0  
      42  hru0042                  0       1.53300      46.67775      17.78115     145.05525        42         s467n178e         0         0         0         0  
      43  hru0043                  0       3.49251      46.67676      17.78265     149.74896        43         s467n178e         0         0         0         0  
      44  hru0044                  0       5.17682      46.66964      17.78396     147.66068        44         s467n178e         0         0         0         0  
      45  hru0045                  0       3.47257      46.67404      17.78251     147.01659        45         s467n178e         0         0         0         0  
      46  hru0046                  0       1.00758      46.70899      17.76681     136.39486        46         s467n178e         0         0         0         0  
      47  hru0047                  0       0.87334      46.70822      17.75886     161.24605        47         s467n178e         0         0         0         0  
      48  hru0048                  0       0.84881      46.70949      17.77202     131.55590        48         s467n178e         0         0         0         0  
      49  hru0049                  0       0.29656      46.70998      17.75939     154.62815        49         s467n178e         0         0         0         0  
      50  hru0050                  0       0.91330      46.71458      17.76740     133.45573        50         s467n178e         0         0         0         0  
      51  hru0051                  0       0.46677      46.71271      17.76712     134.67354        51         s467n178e         0         0         0         0  
      52  hru0052                  0       1.05409      46.71985      17.76461     137.48265        52         s467n178e         0         0         0         0  
      53  hru0053                  0       0.50523      46.71811      17.76485     137.23013        53         s467n178e         0         0         0         0  
      54  hru0054                  0       4.04506      46.71293      17.73964     283.00266        54         s467n177e         0         0         0         0  
      55  hru0055                  0       0.14809      46.70918      17.76805     134.99644        55         s467n178e         0         0         0         0  
      56  hru0056                  0       0.82645      46.72287      17.76291     141.36051        56         s467n178e         0         0         0         0  
      57  hru0057                  0       4.16641      46.71337      17.73452     278.07306        57         s467n177e         0         0         0         0  
      58  hru0058                  0       0.88239      46.70635      17.75591     180.40119        58         s467n178e         0         0         0         0  
      59  hru0059                  0       0.26285      46.70727      17.75783     157.30962        59         s467n178e         0         0         0         0  
      60  hru0060                  0       0.17757      46.70346      17.76618     141.15201        60         s467n178e         0         0         0         0  
      61  hru0061                  0       0.24218      46.70433      17.76443     141.82246        61         s467n178e         0         0         0         0  
      62  hru0062                  0       0.42895      46.70559      17.76386     141.89276        62         s467n178e         0         0         0         0  
      63  hru0063                  0       0.53334      46.70500      17.76401     141.87645        63         s467n178e         0         0         0         0  
      64  hru0064                  0       0.27522      46.70953      17.75963     154.62139        64         s467n178e         0         0         0         0  
      65  hru0065                  0       0.15662      46.70929      17.75974     154.53567        65         s467n178e         0         0         0         0  
      66  hru0066                  0       3.07454      46.71154      17.75843     154.18586        66         s467n178e         0         0         0         0  
      67  hru0067                  0       0.10614      46.70975      17.75951     154.70961        67         s467n178e         0         0         0         0  
      68  hru0068                  0       1.43700      46.70670      17.75738     167.92111        68         s467n178e         0         0         0         0  
      69  hru0069                  0       3.80616      46.70752      17.75767     158.30898        69         s467n178e         0         0         0         0  
      70  hru0070                  0       0.04301      46.70917      17.75981     154.30176        70         s467n178e         0         0         0         0  
      71  hru0071                  0       0.32436      46.70740      17.76036     150.25195        71         s467n178e         0         0         0         0  
      72  hru0072                  0       0.04214      46.71109      17.76155     141.90144        72         s467n178e         0         0         0         0  
      73  hru0073                  0       0.14933      46.71123      17.76230     140.14890        73         s467n178e         0         0         0         0  
      74  hru0074                  0       6.39843      46.71181      17.76204     139.97572        74         s467n178e         0         0         0         0  
      75  hru0075                  0       0.07192      46.71121      17.76147     141.75286        75         s467n178e         0         0         0         0  
      76  hru0076                  0       0.05430      46.71145      17.76167     141.31190        76         s467n178e         0         0         0         0  
      77  hru0077                  0       0.52339      46.71909      17.77331     128.60136        77         s467n178e         0         0         0         0  
      78  hru0078                  0       0.55913      46.71180      17.76212     140.45840        78         s467n178e         0         0         0         0  
      79  hru0079                  0       1.26997      46.71087      17.76377     136.38230        79         s467n178e         0         0         0         0  
      80  hru0080                  0       0.52169      46.70461      17.76414     142.12557        80         s467n178e         0         0         0         0  
      81  hru0081                  0       1.23542      46.70415      17.76512     142.13012        81         s467n178e         0         0         0         0  
      82  hru0082                  0       0.20068      46.70532      17.76391     141.80990        82         s467n178e         0         0         0         0  
      83  hru0083                  0       2.87766      46.70274      17.76458     145.74891        83         s467n178e         0         0         0         0  
      84  hru0084                  0       1.83138      46.70434      17.75964     154.26809        84         s467n178e         0         0         0         0  
      85  hru0085                  0       4.40551      46.71694      17.75701     148.28134        85         s467n178e         0         0         0         0  
      86  hru0086                  0       2.00801      46.71333      17.76587     135.67472        86         s467n178e         0         0         0         0  
      87  hru0087                  0       1.10797      46.71058      17.76134     143.76705        87         s467n178e         0         0         0         0  
      88  hru0088                  0       0.19714      46.72289      17.72534     202.17102        88         s467n177e         0         0         0         0  
      89  hru0089                  0       2.72718      46.72416      17.72540     211.85839        89         s467n177e         0         0         0         0  
      90  hru0090                  0       3.29967      46.73414      17.71373     241.52936        90         s467n177e         0         0         0         0  
      91  hru0091                  0       0.79020      46.72778      17.73738     208.07127        91         s467n177e         0         0         0         0  
      92  hru0092                  0       5.18909      46.72585      17.74429     185.00368        92         s467n177e         0         0         0         0  
      93  hru0093                  0       0.19138      46.72576      17.75808     148.33530        93         s467n178e         0         0         0         0  
      94  hru0094                  0       0.31887      46.72634      17.77980     128.78956        94         s467n178e         0         0         0         0  
      95  hru0095                  0      57.63915      46.71011      17.72660     254.36769        95         s467n177e         0         0         0         0  
      96  hru0096                  0       0.11473      46.60367      17.79918     179.23420        96         s466n178e         0         0         0         0  
      97  hru0097                  0       0.49085      46.60047      17.79931     186.57759        97         s466n178e         0         0         0         0  
      98  hru0098                  0       0.33616      46.60009      17.79930     187.13880        98         s466n178e         0         0         0         0  
      99  hru0099                  0       0.58461      46.59915      17.80013     185.95869        99         s466n178e         0         0         0         0  
     100  hru0100                  0       0.99729      46.72388      17.74680     174.88579       100         s467n177e         0         0         0         0  
     101  hru0101                  0       3.63935      46.72423      17.74818     174.27184       101         s467n177e         0         0         0         0  
     102  hru0102                  0       5.73701      46.70054      17.76403     155.67452       102         s467n178e         0         0         0         0  
     103  hru0103                  0       2.49726      46.71072      17.75729     165.77927       103         s467n178e         0         0         0         0  
     104  hru0104                  0      14.35513      46.72964      17.72865     214.95708       104         s467n177e         0         0         0         0  
     105  hru0105                  0       4.40506      46.69469      17.75682     191.92310       105         s467n178e         0         0         0         0  
     106  hru0106                  0       1.25972      46.71279      17.75788     151.85498       106         s467n178e         0         0         0         0  
     107  hru0107                  0       9.12539      46.71581      17.76064     142.49900       107         s467n178e         0         0         0         0  
     108  hru0108                  0       1.28503      46.70990      17.75862     160.76710       108         s467n178e         0         0         0         0  
     109  hru0109                  0       0.26830      46.71182      17.75764     160.85905       109         s467n178e         0         0         0         0  
     110  hru0110                  0       2.15074      46.59450      17.79884     193.60235       110         s466n178e         0         0         0         0  
     111  hru0111                  0       1.44777      46.58901      17.78598     235.62561       111         s466n178e         0         0         0         0  
     112  hru0112                  0       0.99438      46.59648      17.79243     216.56112       112         s466n178e         0         0         0         0  
     113  hru0113                  0       1.78902      46.59638      17.79169     219.92942       113         s466n178e         0         0         0         0  
     114  hru0114                  0       2.13958      46.60003      17.80148     178.95895       114         s466n178e         0         0         0         0  
     115  hru0115                  0       2.34645      46.72047      17.73149     195.31501       115         s467n177e         0         0         0         0  
     116  hru0116                  0       2.87283      46.59620      17.79044     224.64424       116         s466n178e         0         0         0         0  
     117  hru0117                  0      14.60370      46.69734      17.76036     191.03085       117         s467n178e         0         0         0         0  
     118  hru0118                  0       0.51569      46.72020      17.74326     174.12031       118         s467n177e         0         0         0         0  
     119  hru0119                  0       3.22260      46.72363      17.74594     175.08511       119         s467n177e         0         0         0         0  
     120  hru0120                  0       1.49211      46.72618      17.74690     177.76146       120         s467n177e         0         0         0         0  
     121  hru0121                  0       4.25060      46.71901      17.74741     165.17780       121         s467n177e         0         0         0         0  
     122  hru0122                  0       0.97883      46.70302      17.77105     133.65881       122         s467n178e         0         0         0         0  
     123  hru0123                  0       0.71366      46.68100      17.76842     155.77899       123         s467n178e         0         0         0         0  
     124  hru0124                  0       1.12330      46.72613      17.74612     179.74580       124         s467n177e         0         0         0         0  
     125  hru0125                  0       1.85767      46.67485      17.77131     165.35357       125         s467n178e         0         0         0         0  
     126  hru0126                  0       2.18269      46.72316      17.73453     197.76211       126         s467n177e         0         0         0         0  
     127  hru0127                  0       1.33283      46.72002      17.74386     172.07026       127         s467n177e         0         0         0         0  
     128  hru0128                  0       4.96124      46.72231      17.73617     197.50146       128         s467n177e         0         0         0         0  
     129  hru0129                  0       3.82040      46.72071      17.73674     191.49539       129         s467n177e         0         0         0         0  
     130  hru0130                  0       3.78857      46.71749      17.75053     157.19748       130         s467n178e         0         0         0         0  
     131  hru0131                  0       0.64019      46.72600      17.74774     177.65707       131         s467n177e         0         0         0         0  
     132  hru0132                  0       1.09288      46.71981      17.74466     169.45373       132         s467n177e         0         0         0         0  
     133  hru0133                  0       0.78635      46.71966      17.74528     168.74712       133         s467n177e         0         0         0         0  
     134  hru0134                  0       1.25644      46.67536      17.77408     151.37275       134         s467n178e         0         0         0         0  
     135  hru0135                  0       0.42719      46.67390      17.77466     153.65029       135         s467n178e         0         0         0         0  
     136  hru0136                  0       0.22375      46.67455      17.77539     148.61876       136         s467n178e         0         0         0         0  
     137  hru0137                  0       0.94532      46.67317      17.77494     156.65671       137         s467n178e         0         0         0         0  
     138  hru0138                  0       1.37701      46.67344      17.77582     151.41619       138         s467n178e         0         0         0         0  
     139  hru0139                  0       0.85311      46.66962      17.77715     153.33892       139         s467n178e         0         0         0         0  
     140  hru0140                  0       3.54519      46.59383      17.79896     192.14213       140         s466n178e         0         0         0         0  
     141  hru0141                  0       3.93217      46.66600      17.77782     165.54833       141         s467n178e         0         0         0         0  
     142  hru0142                  0       1.69932      46.68099      17.76921     155.88100       142         s467n178e         0         0         0         0  
     143  hru0143                  0       7.82738      46.59207      17.79852     197.05761       143         s466n178e         0         0         0         0  
     144  hru0144                  0       4.78021      46.67641      17.77282     152.31996       144         s467n178e         0         0         0         0  
     145  hru0145                  0       0.42523      46.67569      17.77492     146.88433       145         s467n178e         0         0         0         0  
     146  hru0146                  0       4.97201      46.66299      17.77888     166.55302       146         s467n178e         0         0         0         0  
     147  hru0147                  0       2.41257      46.72526      17.77951     130.61758       147         s467n178e         0         0         0         0  
     148  hru0148                  0       0.59474      46.72507      17.78075     142.18544       148         s467n178e         0         0         0         0  
     149  hru0149                  0       0.50093      46.72608      17.77891     127.79406       149         s467n178e         0         0         0         0  
     150  hru0150                  0       1.14295      46.72586      17.78111     133.81217       150         s467n178e         0         0         0         0  
     151  hru0151                  0       0.43798      46.60477      17.79901     179.91883       151         s466n178e         0         0         0         0  
     152  hru0152                  0       2.04551      46.60838      17.79534     183.20474       152         s466n178e         0         0         0         0  
     153  hru0153                  0      17.38266      46.72993      17.72597     222.41402       153         s467n177e         0         0         0         0  
     154  hru0154                  0       3.39153      46.60348      17.79845     182.77018       154         s466n178e         0         0         0         0  
     155  hru0155                  0       0.02319      46.72577      17.78864     156.68287       155         s467n178e         0         0         0         0  
     156  hru0156                  0       0.19151      46.72614      17.78928     160.14283       156         s467n178e         0         0         0         0  
     157  hru0157                  0       0.20207      46.72709      17.78833     162.59912       157         s467n178e         0         0         0         0  
     158  hru0158                  0       0.51094      46.72654      17.78857     160.48658       158         s467n178e         0         0         0         0  
     159  hru0159                  0       0.13610      46.72675      17.78761     159.79641       159         s467n178e         0         0         0         0  
     160  hru0160                  0       0.15218      46.72691      17.78875     162.96020       160         s467n178e         0         0         0         0  
     161  hru0161                  0       0.22747      46.65295      17.78391     162.68323       161         s467n178e         0         0         0         0  
     162  hru0162                  0       0.33729      46.65435      17.78270     166.69910       162         s467n178e         0         0         0         0  
     163  hru0163                  0       0.25131      46.65275      17.78400     162.60815       163         s467n178e         0         0         0         0  
     164  hru0164                  0       4.08597      46.65634      17.78188     166.41098       164         s467n178e         0         0         0         0  
     165  hru0165                  0       0.35784      46.65204      17.78431     161.53085       165         s467n178e         0         0         0         0  
     166  hru0166                  0       0.60687      46.60524      17.79456     196.52018       166         s466n178e         0         0         0         0  
     167  hru0167                  0       0.12531      46.60400      17.79905     180.03149       167         s466n178e         0         0         0         0  
     168  hru0168                  0       0.90438      46.65396      17.78384     160.77214       168         s467n178e         0         0         0         0  
     169  hru0169                  0       1.82244      46.65656      17.78274     158.60687       169         s467n178e         0         0         0         0  
     170  hru0170                  0       0.42550      46.65486      17.78317     161.97901       170         s467n178e         0         0         0         0  
     171  hru0171                  0       0.36860      46.70780      17.76043     151.41264       171         s467n178e         0         0         0         0  
     172  hru0172                  0       0.42560      46.67502      17.77593     146.45715       172         s467n178e         0         0         0         0  
     173  hru0173                  0       0.23461      46.70853      17.75976     155.70704       173         s467n178e         0         0         0         0  
     174  hru0174                  0       0.95031      46.67062      17.78673     166.49670       174         s467n178e         0         0         0         0  
     175  hru0175                  0       0.36358      46.67249      17.77701     150.55732       175         s467n178e         0         0         0         0  
     176  hru0176                  0       0.12497      46.66949      17.78713     165.78878       176         s467n178e         0         0         0         0  
     177  hru0177                  0       1.58014      46.65364      17.78275     168.64526       177         s467n178e         0         0         0         0  
     178  hru0178                  0       0.19343      46.65399      17.78154     176.46469       178         s467n178e         0         0         0         0  
     179  hru0179                  0       0.28131      46.65240      17.78383     163.60840       179         s467n178e         0         0         0         0  
     180  hru0180                  0       0.09615      46.65411      17.78224     173.49223       180         s467n178e         0         0         0         0  
     181  hru0181                  0       0.25033      46.65425      17.78159     175.97094       181         s467n178e         0         0         0         0  
     182  hru0182                  0       2.36235      46.66066      17.78001     163.90239       182         s467n178e         0         0         0         0  