hyd-sed-lte.cha: written by SWAT+ editor v2.2.0 on 2024-01-15 12:53 for SWAT+ rev.60.5.4
name                         order            wd            dp           slp           len          mann             k     erod_fact      cov_fact        wd_rto        eq_slp           d50          clay        carbon        dry_bd      side_slp      bed_load           fps           fpn        n_conc        p_conc         p_bio  description
hydcha01                      null       1.63174       0.22120       0.01768       4.21544       0.05000       1.00000       0.01000       0.00500       7.37694       0.00100      12.00000      50.00000       0.04000       1.00000       0.50000       0.50000       1.00000       1.00000       1.00000       1.00000       1.00000  
hydcha02                      null       2.23260       0.26740       0.00891       2.40881       0.05000       1.00000       0.01000       0.00500       8.34917       0.00100      12.00000      50.00000       0.04000       1.00000       0.50000       0.50000       1.00000       1.00000       1.00000       1.00000       1.00000  
hydcha03                      null       0.68265       0.13055       0.00782       2.23712       0.05000       1.00000       0.01000       0.00500       5.22915       0.00100      12.00000      50.00000       0.04000       1.00000       0.50000       0.50000       1.00000       1.00000       1.00000       1.00000       1.00000  
hydcha04                      null       1.36443       0.19850       0.01467       3.52615       0.05000       1.00000       0.01000       0.00500       6.87375       0.00100      12.00000      50.00000       0.04000       1.00000       0.50000       0.50000       1.00000       1.00000       1.00000       1.00000       1.00000  
hydcha05                      null       3.68972       0.36240       0.00316       0.68446       0.05000       1.00000       0.01000       0.00500      10.18124       0.00100      12.00000      50.00000       0.04000       1.00000       0.50000       0.50000       1.00000       1.00000       1.00000       1.00000       1.00000  
hydcha06                      null       3.67381       0.36146       0.00272       2.40707       0.05000       1.00000       0.01000       0.00500      10.16388       0.00100      12.00000      50.00000       0.04000       1.00000       0.50000       0.50000       1.00000       1.00000       1.00000       1.00000       1.00000  
hydcha07                      null       3.70292       0.36319       0.00235       0.79353       0.05000       1.00000       0.01000       0.00500      10.19561       0.00100      12.00000      50.00000       0.04000       1.00000       0.50000       0.50000       1.00000       1.00000       1.00000       1.00000       1.00000  
hydcha08                      null       0.99104       0.16358       0.02691       2.47879       0.05000       1.00000       0.01000       0.00500       6.05841       0.00100      12.00000      50.00000       0.04000       1.00000       0.50000       0.50000       1.00000       1.00000       1.00000       1.00000       1.00000  
hydcha09                      null       0.99468       0.16394       0.02883       1.53705       0.05000       1.00000       0.01000       0.00500       6.06719       0.00100      12.00000      50.00000       0.04000       1.00000       0.50000       0.50000       1.00000       1.00000       1.00000       1.00000       1.00000  
hydcha10                      null       3.49899       0.35095       0.00351       1.28771       0.05000       1.00000       0.01000       0.00500       9.97007       0.00100      12.00000      50.00000       0.04000       1.00000       0.50000       0.50000       1.00000       1.00000       1.00000       1.00000       1.00000  
hydcha11                      null       0.85129       0.14921       0.04069       1.14295       0.05000       1.00000       0.01000       0.00500       5.70547       0.00100      12.00000      50.00000       0.04000       1.00000       0.50000       0.50000       1.00000       1.00000       1.00000       1.00000       1.00000  
hydcha12                      null       3.48331       0.35000       0.00295       1.08216       0.05000       1.00000       0.01000       0.00500       9.95241       0.00100      12.00000      50.00000       0.04000       1.00000       0.50000       0.50000       1.00000       1.00000       1.00000       1.00000       1.00000  
hydcha13                      null       0.71849       0.13465       0.00962       0.19981       0.05000       1.00000       0.01000       0.00500       5.33587       0.00100      12.00000      50.00000       0.04000       1.00000       0.50000       0.50000       1.00000       1.00000       1.00000       1.00000       1.00000  
hydcha14                      null       2.70578       0.30039       0.01091       0.83303       0.05000       1.00000       0.01000       0.00500       9.00760       0.00100      12.00000      50.00000       0.04000       1.00000       0.50000       0.50000       1.00000       1.00000       1.00000       1.00000       1.00000  
hydcha15                      null       0.66496       0.12849       0.02162       0.96939       0.05000       1.00000       0.01000       0.00500       5.17519       0.00100      12.00000      50.00000       0.04000       1.00000       0.50000       0.50000       1.00000       1.00000       1.00000       1.00000       1.00000  
hydcha16                      null       0.47856       0.10530       0.02779       0.28004       0.05000       1.00000       0.01000       0.00500       4.54481       0.00100      12.00000      50.00000       0.04000       1.00000       0.50000       0.50000       1.00000       1.00000       1.00000       1.00000       1.00000  
hydcha17                      null       2.69242       0.29949       0.00661       0.54272       0.05000       1.00000       0.01000       0.00500       8.99001       0.00100      12.00000      50.00000       0.04000       1.00000       0.50000       0.50000       1.00000       1.00000       1.00000       1.00000       1.00000  
hydcha18                      null       2.57495       0.29151       0.00326       0.90634       0.05000       1.00000       0.01000       0.00500       8.83303       0.00100      12.00000      50.00000       0.04000       1.00000       0.50000       0.50000       1.00000       1.00000       1.00000       1.00000       1.00000  
hydcha19                      null       2.54996       0.28980       0.00324       0.56155       0.05000       1.00000       0.01000       0.00500       8.79909       0.00100      12.00000      50.00000       0.04000       1.00000       0.50000       0.50000       1.00000       1.00000       1.00000       1.00000       1.00000  
hydcha20                      null       2.52955       0.28839       0.00268       2.84608       0.05000       1.00000       0.01000       0.00500       8.77120       0.00100      12.00000      50.00000       0.04000       1.00000       0.50000       0.50000       1.00000       1.00000       1.00000       1.00000       1.00000  
hydcha21                      null       1.58968       0.21773       0.00001       0.31830       0.05000       1.00000       0.01000       0.00500       7.30125       0.00100      12.00000      50.00000       0.04000       1.00000       0.50000       0.50000       1.00000       1.00000       1.00000       1.00000       1.00000  
hydcha22                      null       1.60634       0.21911       0.00405       2.35061       0.05000       1.00000       0.01000       0.00500       7.33138       0.00100      12.00000      50.00000       0.04000       1.00000       0.50000       0.50000       1.00000       1.00000       1.00000       1.00000       1.00000  
hydcha23                      null       1.13802       0.17786       0.01241       1.20950       0.05000       1.00000       0.01000       0.00500       6.39847       0.00100      12.00000      50.00000       0.04000       1.00000       0.50000       0.50000       1.00000       1.00000       1.00000       1.00000       1.00000  
hydcha24                      null       1.10512       0.17473       0.00478       0.39737       0.05000       1.00000       0.01000       0.00500       6.32477       0.00100      12.00000      50.00000       0.04000       1.00000       0.50000       0.50000       1.00000       1.00000       1.00000       1.00000       1.00000  
