initial.cha: written by SWAT+ editor v2.2.0 on 2024-01-15 12:53 for SWAT+ rev.60.5.4
name                       org_min              pest              path              hmet              salt  description       
initcha1                   no_init              null              null              null              null  null              
