landuse.lum: written by SWAT+ editor v2.2.0 on 2024-01-15 12:53 for SWAT+ rev.60.5.4, edited manually on 2024-07-29 12:51:13.365457 and edited with SWATfarmR 2.0.5 on 2024-07-29 13:24:25.608575
name                         cal_group          plnt_com               mgt               cn2         cons_prac             urban            urb_ro           ov_mann              tile               sep               vfs              grww               bmp
field_100_lum_735_1               null field_100_comm_735_1 field_100_mgt_735_1        rc_strow_p     up_down_slope              null              null    convtill_nores              null              null              null              null              null
field_101_lum_739_1               null field_101_comm_739_1 field_101_mgt_739_1        rc_strow_p     up_down_slope              null              null    convtill_nores              null              null              null              null              null
field_102_lum_764_1               null field_102_comm_764_1 field_102_mgt_764_1        rc_strow_p     up_down_slope              null              null    convtill_nores              null              null              null              null              null
field_103_lum_765_1               null field_103_comm_765_1 field_103_mgt_765_1        rc_strow_p     up_down_slope              null              null    convtill_nores              null              null              null              null              null
field_104_lum_766_1               null field_104_comm_766_1 field_104_mgt_766_1        rc_strow_p     up_down_slope              null              null    convtill_nores              null              null              null              null              null
field_105_lum_792_1               null field_105_comm_792_1 field_105_mgt_792_1        rc_strow_p     up_down_slope              null              null    convtill_nores              null              null              null              null              null
field_106_lum_853_1               null field_106_comm_853_1 field_106_mgt_853_1        rc_strow_p     up_down_slope              null              null    convtill_nores              null              null              null              null              null
field_107_lum_854_1               null field_107_comm_854_1 field_107_mgt_854_1        rc_strow_p     up_down_slope              null              null    convtill_nores              null              null              null              null              null
field_108_lum_882_1               null field_108_comm_882_1 field_108_mgt_882_1        rc_strow_p     up_down_slope              null              null    convtill_nores              null              null              null              null              null
field_109_lum_900_1               null field_109_comm_900_1 field_109_mgt_900_1        rc_strow_p     up_down_slope              null              null    convtill_nores              null              null              null              null              null
field_10_lum_478_1                null field_10_comm_478_1 field_10_mgt_478_1        rc_strow_p     up_down_slope              null              null    convtill_nores              null              null              null              null              null
field_110_lum_16_1                null field_110_comm_16_1 field_110_mgt_16_1        rc_strow_p     up_down_slope              null              null    convtill_nores              null              null              null              null              null
field_111_lum_115_1               null field_111_comm_115_1 field_111_mgt_115_1        rc_strow_p     up_down_slope              null              null    convtill_nores              null              null              null              null              null
field_112_lum_914_1               null field_112_comm_914_1 field_112_mgt_914_1        rc_strow_p     up_down_slope              null              null    convtill_nores              null              null              null              null              null
field_113_lum_921_1               null field_113_comm_921_1 field_113_mgt_921_1        rc_strow_p     up_down_slope              null              null    convtill_nores              null              null              null              null              null
field_114_lum_922_1               null field_114_comm_922_1 field_114_mgt_922_1        rc_strow_p     up_down_slope              null              null    convtill_nores              null              null              null              null              null
field_115_lum_923_1               null field_115_comm_923_1 field_115_mgt_923_1        rc_strow_p     up_down_slope              null              null    convtill_nores              null              null              null              null              null
field_116_lum_926_1               null field_116_comm_926_1 field_116_mgt_926_1        rc_strow_p     up_down_slope              null              null    convtill_nores              null              null              null              null              null
field_117_lum_927_1               null field_117_comm_927_1 field_117_mgt_927_1        rc_strow_p     up_down_slope              null              null    convtill_nores              null              null              null              null              null
field_118_lum_928_1               null field_118_comm_928_1 field_118_mgt_928_1        rc_strow_p     up_down_slope              null              null    convtill_nores              null              null              null              null              null
field_119_lum_932_1               null field_119_comm_932_1 field_119_mgt_932_1        rc_strow_p     up_down_slope              null              null    convtill_nores              null              null              null              null              null
field_11_lum_480_1                null field_11_comm_480_1 field_11_mgt_480_1        rc_strow_p     up_down_slope              null              null    convtill_nores              null              null              null              null              null
field_120_lum_933_1               null field_120_comm_933_1 field_120_mgt_933_1        rc_strow_p     up_down_slope              null              null    convtill_nores              null              null              null              null              null
field_121_lum_938_1               null field_121_comm_938_1 field_121_mgt_938_1        rc_strow_p     up_down_slope              null              null    convtill_nores              null              null              null              null              null
field_122_lum_116_1               null field_122_comm_116_1 field_122_mgt_116_1        rc_strow_p     up_down_slope              null              null    convtill_nores              null              null              null              null              null
field_123_lum_939_1               null field_123_comm_939_1 field_123_mgt_939_1        rc_strow_p     up_down_slope              null              null    convtill_nores              null              null              null              null              null
field_124_lum_941_1               null field_124_comm_941_1 field_124_mgt_941_1        rc_strow_p     up_down_slope              null              null    convtill_nores              null              null              null              null              null
field_125_lum_942_1               null field_125_comm_942_1 field_125_mgt_942_1        rc_strow_p     up_down_slope              null              null    convtill_nores              null              null              null              null              null
field_126_lum_943_1               null field_126_comm_943_1 field_126_mgt_943_1        rc_strow_p     up_down_slope              null              null    convtill_nores              null              null              null              null              null
field_127_lum_967_1               null field_127_comm_967_1 field_127_mgt_967_1        rc_strow_p     up_down_slope              null              null    convtill_nores              null              null              null              null              null
field_128_lum_975_1               null field_128_comm_975_1 field_128_mgt_975_1        rc_strow_p     up_down_slope              null              null    convtill_nores              null              null              null              null              null
field_129_lum_979_1               null field_129_comm_979_1 field_129_mgt_979_1        rc_strow_p     up_down_slope              null              null    convtill_nores              null              null              null              null              null
field_12_lum_489_1                null field_12_comm_489_1 field_12_mgt_489_1        rc_strow_p     up_down_slope              null              null    convtill_nores              null              null              null              null              null
field_130_lum_984_1               null field_130_comm_984_1 field_130_mgt_984_1        rc_strow_p     up_down_slope              null              null    convtill_nores              null              null              null              null              null
field_131_lum_985_1               null field_131_comm_985_1 field_131_mgt_985_1        rc_strow_p     up_down_slope              null              null    convtill_nores              null              null              null              null              null
field_132_lum_987_1               null field_132_comm_987_1 field_132_mgt_987_1        rc_strow_p     up_down_slope              null              null    convtill_nores              null              null              null              null              null
field_133_lum_118_1               null field_133_comm_118_1 field_133_mgt_118_1        rc_strow_p     up_down_slope              null              null    convtill_nores              null              null              null              null              null
field_134_lum_991_1               null field_134_comm_991_1 field_134_mgt_991_1        rc_strow_p     up_down_slope              null              null    convtill_nores              null              null              null              null              null
field_135_lum_1016_1              null field_135_comm_1016_1 field_135_mgt_1016_1        rc_strow_p     up_down_slope              null              null    convtill_nores              null              null              null              null              null
field_136_lum_1020_1              null field_136_comm_1020_1 field_136_mgt_1020_1        rc_strow_p     up_down_slope              null              null    convtill_nores              null              null              null              null              null
field_137_lum_1025_1              null field_137_comm_1025_1 field_137_mgt_1025_1        rc_strow_p     up_down_slope              null              null    convtill_nores              null              null              null              null              null
field_138_lum_1032_1              null field_138_comm_1032_1 field_138_mgt_1032_1        rc_strow_p     up_down_slope              null              null    convtill_nores              null              null              null              null              null
field_139_lum_1043_1              null field_139_comm_1043_1 field_139_mgt_1043_1        rc_strow_p     up_down_slope              null              null    convtill_nores              null              null              null              null              null
field_13_lum_54_1                 null field_13_comm_54_1 field_13_mgt_54_1        rc_strow_p     up_down_slope              null              null    convtill_nores              null              null              null              null              null
field_140_lum_1045_1              null field_140_comm_1045_1 field_140_mgt_1045_1        rc_strow_p     up_down_slope              null              null    convtill_nores              null              null              null              null              null
field_141_lum_1047_1              null field_141_comm_1047_1 field_141_mgt_1047_1        rc_strow_p     up_down_slope              null              null    convtill_nores              null              null              null              null              null
field_142_lum_1049_1              null field_142_comm_1049_1 field_142_mgt_1049_1        rc_strow_p     up_down_slope              null              null    convtill_nores              null              null              null              null              null
field_143_lum_121_1               null field_143_comm_121_1 field_143_mgt_121_1        rc_strow_p     up_down_slope              null              null    convtill_nores              null              null              null              null              null
field_144_lum_1050_1              null field_144_comm_1050_1 field_144_mgt_1050_1        rc_strow_p     up_down_slope              null              null    convtill_nores              null              null              null              null              null
field_145_lum_1051_1              null field_145_comm_1051_1 field_145_mgt_1051_1        rc_strow_p     up_down_slope              null              null    convtill_nores              null              null              null              null              null
field_146_lum_1052_1              null field_146_comm_1052_1 field_146_mgt_1052_1        rc_strow_p     up_down_slope              null              null    convtill_nores              null              null              null              null              null
field_147_lum_1054_1              null field_147_comm_1054_1 field_147_mgt_1054_1        rc_strow_p     up_down_slope              null              null    convtill_nores              null              null              null              null              null
field_148_lum_1056_1              null field_148_comm_1056_1 field_148_mgt_1056_1        rc_strow_p     up_down_slope              null              null    convtill_nores              null              null              null              null              null
field_149_lum_1058_1              null field_149_comm_1058_1 field_149_mgt_1058_1        rc_strow_p     up_down_slope              null              null    convtill_nores              null              null              null              null              null
field_14_lum_492_1                null field_14_comm_492_1 field_14_mgt_492_1        rc_strow_p     up_down_slope              null              null    convtill_nores              null              null              null              null              null
field_150_lum_1059_1              null field_150_comm_1059_1 field_150_mgt_1059_1        rc_strow_p     up_down_slope              null              null    convtill_nores              null              null              null              null              null
field_151_lum_125_1               null field_151_comm_125_1 field_151_mgt_125_1        rc_strow_p     up_down_slope              null              null    convtill_nores              null              null              null              null              null
field_152_lum_1060_1              null field_152_comm_1060_1 field_152_mgt_1060_1        rc_strow_p     up_down_slope              null              null    convtill_nores              null              null              null              null              null
field_153_lum_1061_1              null field_153_comm_1061_1 field_153_mgt_1061_1        rc_strow_p     up_down_slope              null              null    convtill_nores              null              null              null              null              null
field_154_lum_1079_1              null field_154_comm_1079_1 field_154_mgt_1079_1        rc_strow_p     up_down_slope              null              null    convtill_nores              null              null              null              null              null
field_155_lum_1080_1              null field_155_comm_1080_1 field_155_mgt_1080_1        rc_strow_p     up_down_slope              null              null    convtill_nores              null              null              null              null              null
field_156_lum_1083_1              null field_156_comm_1083_1 field_156_mgt_1083_1        rc_strow_p     up_down_slope              null              null    convtill_nores              null              null              null              null              null
field_157_lum_1092_1              null field_157_comm_1092_1 field_157_mgt_1092_1        rc_strow_p     up_down_slope              null              null    convtill_nores              null              null              null              null              null
field_158_lum_1112_1              null field_158_comm_1112_1 field_158_mgt_1112_1        rc_strow_p     up_down_slope              null              null    convtill_nores              null              null              null              null              null
field_159_lum_1157_1              null field_159_comm_1157_1 field_159_mgt_1157_1        rc_strow_p     up_down_slope              null              null    convtill_nores              null              null              null              null              null
field_15_lum_493_1                null field_15_comm_493_1 field_15_mgt_493_1        rc_strow_p     up_down_slope              null              null    convtill_nores              null              null              null              null              null
field_160_lum_127_1               null field_160_comm_127_1 field_160_mgt_127_1        rc_strow_p     up_down_slope              null              null    convtill_nores              null              null              null              null              null
field_161_lum_128_1               null field_161_comm_128_1 field_161_mgt_128_1        rc_strow_p     up_down_slope              null              null    convtill_nores              null              null              null              null              null
field_162_lum_129_1               null field_162_comm_129_1 field_162_mgt_129_1        rc_strow_p     up_down_slope              null              null    convtill_nores              null              null              null              null              null
field_163_lum_132_1               null field_163_comm_132_1 field_163_mgt_132_1        rc_strow_p     up_down_slope              null              null    convtill_nores              null              null              null              null              null
field_164_lum_133_1               null field_164_comm_133_1 field_164_mgt_133_1        rc_strow_p     up_down_slope              null              null    convtill_nores              null              null              null              null              null
field_165_lum_35_1                null field_165_comm_35_1 field_165_mgt_35_1        rc_strow_p     up_down_slope              null              null    convtill_nores              null              null              null              null              null
field_166_lum_140_1               null field_166_comm_140_1 field_166_mgt_140_1        rc_strow_p     up_down_slope              null              null    convtill_nores              null              null              null              null              null
field_167_lum_143_1               null field_167_comm_143_1 field_167_mgt_143_1        rc_strow_p     up_down_slope              null              null    convtill_nores              null              null              null              null              null
field_168_lum_183_1               null field_168_comm_183_1 field_168_mgt_183_1        rc_strow_p     up_down_slope              null              null    convtill_nores              null              null              null              null              null
field_169_lum_203_1               null field_169_comm_203_1 field_169_mgt_203_1        rc_strow_p     up_down_slope              null              null    convtill_nores              null              null              null              null              null
field_16_lum_500_1                null field_16_comm_500_1 field_16_mgt_500_1        rc_strow_p     up_down_slope              null              null    convtill_nores              null              null              null              null              null
field_170_lum_207_1               null field_170_comm_207_1 field_170_mgt_207_1        rc_strow_p     up_down_slope              null              null    convtill_nores              null              null              null              null              null
field_171_lum_209_1               null field_171_comm_209_1 field_171_mgt_209_1        rc_strow_p     up_down_slope              null              null    convtill_nores              null              null              null              null              null
field_172_lum_215_1               null field_172_comm_215_1 field_172_mgt_215_1        rc_strow_p     up_down_slope              null              null    convtill_nores              null              null              null              null              null
field_173_lum_218_1               null field_173_comm_218_1 field_173_mgt_218_1        rc_strow_p     up_down_slope              null              null    convtill_nores              null              null              null              null              null
field_174_lum_220_1               null field_174_comm_220_1 field_174_mgt_220_1        rc_strow_p     up_down_slope              null              null    convtill_nores              null              null              null              null              null
field_175_lum_223_1               null field_175_comm_223_1 field_175_mgt_223_1        rc_strow_p     up_down_slope              null              null    convtill_nores              null              null              null              null              null
field_176_lum_36_1                null field_176_comm_36_1 field_176_mgt_36_1        rc_strow_p     up_down_slope              null              null    convtill_nores              null              null              null              null              null
field_177_lum_228_1               null field_177_comm_228_1 field_177_mgt_228_1        rc_strow_p     up_down_slope              null              null    convtill_nores              null              null              null              null              null
field_178_lum_233_1               null field_178_comm_233_1 field_178_mgt_233_1        rc_strow_p     up_down_slope              null              null    convtill_nores              null              null              null              null              null
field_179_lum_235_1               null field_179_comm_235_1 field_179_mgt_235_1        rc_strow_p     up_down_slope              null              null    convtill_nores              null              null              null              null              null
field_17_lum_509_1                null field_17_comm_509_1 field_17_mgt_509_1        rc_strow_p     up_down_slope              null              null    convtill_nores              null              null              null              null              null
field_180_lum_236_1               null field_180_comm_236_1 field_180_mgt_236_1        rc_strow_p     up_down_slope              null              null    convtill_nores              null              null              null              null              null
field_181_lum_238_1               null field_181_comm_238_1 field_181_mgt_238_1        rc_strow_p     up_down_slope              null              null    convtill_nores              null              null              null              null              null
field_182_lum_241_1               null field_182_comm_241_1 field_182_mgt_241_1        rc_strow_p     up_down_slope              null              null    convtill_nores              null              null              null              null              null
field_183_lum_242_1               null field_183_comm_242_1 field_183_mgt_242_1        rc_strow_p     up_down_slope              null              null    convtill_nores              null              null              null              null              null
field_184_lum_249_1               null field_184_comm_249_1 field_184_mgt_249_1        rc_strow_p     up_down_slope              null              null    convtill_nores              null              null              null              null              null
field_185_lum_255_1               null field_185_comm_255_1 field_185_mgt_255_1        rc_strow_p     up_down_slope              null              null    convtill_nores              null              null              null              null              null
field_186_lum_37_1                null field_186_comm_37_1 field_186_mgt_37_1        rc_strow_p     up_down_slope              null              null    convtill_nores              null              null              null              null              null
field_187_lum_256_1               null field_187_comm_256_1 field_187_mgt_256_1        rc_strow_p     up_down_slope              null              null    convtill_nores              null              null              null              null              null
field_188_lum_275_1               null field_188_comm_275_1 field_188_mgt_275_1        rc_strow_p     up_down_slope              null              null    convtill_nores              null              null              null              null              null
field_189_lum_279_1               null field_189_comm_279_1 field_189_mgt_279_1        rc_strow_p     up_down_slope              null              null    convtill_nores              null              null              null              null              null
field_18_lum_516_1                null field_18_comm_516_1 field_18_mgt_516_1        rc_strow_p     up_down_slope              null              null    convtill_nores              null              null              null              null              null
field_190_lum_284_1               null field_190_comm_284_1 field_190_mgt_284_1        rc_strow_p     up_down_slope              null              null    convtill_nores              null              null              null              null              null
field_191_lum_286_1               null field_191_comm_286_1 field_191_mgt_286_1        rc_strow_p     up_down_slope              null              null    convtill_nores              null              null              null              null              null
field_192_lum_288_1               null field_192_comm_288_1 field_192_mgt_288_1        rc_strow_p     up_down_slope              null              null    convtill_nores              null              null              null              null              null
field_193_lum_295_1               null field_193_comm_295_1 field_193_mgt_295_1        rc_strow_p     up_down_slope              null              null    convtill_nores              null              null              null              null              null
field_194_lum_300_1               null field_194_comm_300_1 field_194_mgt_300_1        rc_strow_p     up_down_slope              null              null    convtill_nores              null              null              null              null              null
field_195_lum_302_1               null field_195_comm_302_1 field_195_mgt_302_1        rc_strow_p     up_down_slope              null              null    convtill_nores              null              null              null              null              null
field_196_lum_39_1                null field_196_comm_39_1 field_196_mgt_39_1        rc_strow_p     up_down_slope              null              null    convtill_nores              null              null              null              null              null
field_197_lum_310_1               null field_197_comm_310_1 field_197_mgt_310_1        rc_strow_p     up_down_slope              null              null    convtill_nores              null              null              null              null              null
field_198_lum_338_1               null field_198_comm_338_1 field_198_mgt_338_1        rc_strow_p     up_down_slope              null              null    convtill_nores              null              null              null              null              null
field_199_lum_341_1               null field_199_comm_341_1 field_199_mgt_341_1        rc_strow_p     up_down_slope              null              null    convtill_nores              null              null              null              null              null
field_19_lum_522_1                null field_19_comm_522_1 field_19_mgt_522_1        rc_strow_p     up_down_slope              null              null    convtill_nores              null              null              null              null              null
field_1_lum_15_1                  null field_1_comm_15_1  field_1_mgt_15_1        rc_strow_p     up_down_slope              null              null    convtill_nores              null              null              null              null              null
field_200_lum_347_1               null field_200_comm_347_1 field_200_mgt_347_1        rc_strow_p     up_down_slope              null              null    convtill_nores              null              null              null              null              null
field_201_lum_349_1               null field_201_comm_349_1 field_201_mgt_349_1        rc_strow_p     up_down_slope              null              null    convtill_nores              null              null              null              null              null