ls_unit.ele: written by SWAT+ editor v2.2.0 on 2024-01-15 12:53 for SWAT+ rev.60.5.4
      id  name                   obj_typ  obj_typ_no      bsn_frac      sub_frac      reg_frac  
       1  hru0001                    hru           1     2.3742E-5       1.00000       0.00000  
       2  hru0002                    hru           2     2.9977E-5       1.00000       0.00000  
       3  hru0003                    hru           3     2.0026E-4       1.00000       0.00000  
       4  hru0004                    hru           4     6.6638E-5       1.00000       0.00000  
       5  hru0005                    hru           5     8.0816E-5       1.00000       0.00000  
       6  hru0006                    hru           6     7.6700E-6       1.00000       0.00000  
       7  hru0007                    hru           7     1.5089E-4       1.00000       0.00000  
       8  hru0008                    hru           8     3.6441E-5       1.00000       0.00000  
       9  hru0009                    hru           9     1.4640E-4       1.00000       0.00000  
      10  hru0010                    hru          10     2.0248E-5       1.00000       0.00000  
      11  hru0011                    hru          11     1.5098E-5       1.00000       0.00000  
      12  hru0012                    hru          12     8.6649E-5       1.00000       0.00000  
      13  hru0013                    hru          13     2.8127E-3       1.00000       0.00000  
      14  hru0014                    hru          14     2.4831E-4       1.00000       0.00000  
      15  hru0015                    hru          15     2.8025E-3       1.00000       0.00000  
      16  hru0016                    hru          16     3.2880E-4       1.00000       0.00000  
      17  hru0017                    hru          17     1.3342E-5       1.00000       0.00000  
      18  hru0018                    hru          18     9.5560E-5       1.00000       0.00000  
      19  hru0019                    hru          19     1.5089E-4       1.00000       0.00000  
      20  hru0020                    hru          20     7.2352E-5       1.00000       0.00000  
      21  hru0021                    hru          21     1.2657E-5       1.00000       0.00000  
      22  hru0022                    hru          22     1.8005E-4       1.00000       0.00000  
      23  hru0023                    hru          23     3.4458E-6       1.00000       0.00000  
      24  hru0024                    hru          24     1.4756E-5       1.00000       0.00000  
      25  hru0025                    hru          25     2.2989E-4       1.00000       0.00000  
      26  hru0026                    hru          26     4.1330E-5       1.00000       0.00000  
      27  hru0027                    hru          27     3.1421E-5       1.00000       0.00000  
      28  hru0028                    hru          28     4.0117E-5       1.00000       0.00000  
      29  hru0029                    hru          29     1.7207E-4       1.00000       0.00000  
      30  hru0030                    hru          30     9.0768E-5       1.00000       0.00000  
      31  hru0031                    hru          31     3.4841E-5       1.00000       0.00000  
      32  hru0032                    hru          32     6.7055E-5       1.00000       0.00000  
      33  hru0033                    hru          33     2.1371E-4       1.00000       0.00000  
      34  hru0034                    hru          34     2.0672E-5       1.00000       0.00000  
      35  hru0035                    hru          35     3.6461E-4       1.00000       0.00000  
      36  hru0036                    hru          36     1.4286E-4       1.00000       0.00000  
      37  hru0037                    hru          37     2.5056E-4       1.00000       0.00000  
      38  hru0038                    hru          38     5.5697E-6       1.00000       0.00000  
      39  hru0039                    hru          39     7.3115E-4       1.00000       0.00000  
      40  hru0040                    hru          40     1.5796E-4       1.00000       0.00000  
      41  hru0041                    hru          41     6.4979E-4       1.00000       0.00000  
      42  hru0042                    hru          42     2.1183E-4       1.00000       0.00000  
      43  hru0043                    hru          43     4.8260E-4       1.00000       0.00000  
      44  hru0044                    hru          44     7.1534E-4       1.00000       0.00000  
      45  hru0045                    hru          45     4.7984E-4       1.00000       0.00000  
      46  hru0046                    hru          46     1.3923E-4       1.00000       0.00000  
      47  hru0047                    hru          47     1.2068E-4       1.00000       0.00000  
      48  hru0048                    hru          48     1.1729E-4       1.00000       0.00000  
      49  hru0049                    hru          49     4.0979E-5       1.00000       0.00000  
      50  hru0050                    hru          50     1.2620E-4       1.00000       0.00000  
      51  hru0051                    hru          51     6.4499E-5       1.00000       0.00000  
      52  hru0052                    hru          52     1.4566E-4       1.00000       0.00000  
      53  hru0053                    hru          53     6.9814E-5       1.00000       0.00000  
      54  hru0054                    hru          54     5.5895E-4       1.00000       0.00000  
      55  hru0055                    hru          55     2.0463E-5       1.00000       0.00000  
      56  hru0056                    hru          56     1.1420E-4       1.00000       0.00000  
      57  hru0057                    hru          57     5.7572E-4       1.00000       0.00000  
      58  hru0058                    hru          58     1.2193E-4       1.00000       0.00000  
      59  hru0059                    hru          59     3.6321E-5       1.00000       0.00000  
      60  hru0060                    hru          60     2.4537E-5       1.00000       0.00000  
      61  hru0061                    hru          61     3.3465E-5       1.00000       0.00000  
      62  hru0062                    hru          62     5.9273E-5       1.00000       0.00000  
      63  hru0063                    hru          63     7.3698E-5       1.00000       0.00000  
      64  hru0064                    hru          64     3.8031E-5       1.00000       0.00000  
      65  hru0065                    hru          65     2.1642E-5       1.00000       0.00000  
      66  hru0066                    hru          66     4.2484E-4       1.00000       0.00000  
      67  hru0067                    hru          67     1.4667E-5       1.00000       0.00000  
      68  hru0068                    hru          68     1.9857E-4       1.00000       0.00000  
      69  hru0069                    hru          69     5.2594E-4       1.00000       0.00000  
      70  hru0070                    hru          70     5.9435E-6       1.00000       0.00000  
      71  hru0071                    hru          71     4.4821E-5       1.00000       0.00000  
      72  hru0072                    hru          72     5.8230E-6       1.00000       0.00000  
      73  hru0073                    hru          73     2.0635E-5       1.00000       0.00000  
      74  hru0074                    hru          74     8.8415E-4       1.00000       0.00000  
      75  hru0075                    hru          75     9.9386E-6       1.00000       0.00000  
      76  hru0076                    hru          76     7.5039E-6       1.00000       0.00000  
      77  hru0077                    hru          77     7.2323E-5       1.00000       0.00000  
      78  hru0078                    hru          78     7.7262E-5       1.00000       0.00000  
      79  hru0079                    hru          79     1.7549E-4       1.00000       0.00000  
      80  hru0080                    hru          80     7.2088E-5       1.00000       0.00000  
      81  hru0081                    hru          81     1.7071E-4       1.00000       0.00000  
      82  hru0082                    hru          82     2.7730E-5       1.00000       0.00000  
      83  hru0083                    hru          83     3.9764E-4       1.00000       0.00000  
      84  hru0084                    hru          84     2.5306E-4       1.00000       0.00000  
      85  hru0085                    hru          85     6.0876E-4       1.00000       0.00000  
      86  hru0086                    hru          86     2.7747E-4       1.00000       0.00000  
      87  hru0087                    hru          87     1.5310E-4       1.00000       0.00000  
      88  hru0088                    hru          88     2.7242E-5       1.00000       0.00000  
      89  hru0089                    hru          89     3.7685E-4       1.00000       0.00000  
      90  hru0090                    hru          90     4.5595E-4       1.00000       0.00000  
      91  hru0091                    hru          91     1.0919E-4       1.00000       0.00000  
      92  hru0092                    hru          92     7.1704E-4       1.00000       0.00000  
      93  hru0093                    hru          93     2.6445E-5       1.00000       0.00000  
      94  hru0094                    hru          94     4.4062E-5       1.00000       0.00000  
      95  hru0095                    hru          95     7.9647E-3       1.00000       0.00000  
      96  hru0096                    hru          96     1.5854E-5       1.00000       0.00000  
      97  hru0097                    hru          97     6.7827E-5       1.00000       0.00000  
      98  hru0098                    hru          98     4.6451E-5       1.00000       0.00000  
      99  hru0099                    hru          99     8.0783E-5       1.00000       0.00000  
     100  hru0100                    hru         100     1.3781E-4       1.00000       0.00000  
     101  hru0101                    hru         101     5.0289E-4       1.00000       0.00000  
     102  hru0102                    hru         102     7.9275E-4       1.00000       0.00000  
     103  hru0103                    hru         103     3.4508E-4       1.00000       0.00000  
     104  hru0104                    hru         104     1.9836E-3       1.00000       0.00000  
     105  hru0105                    hru         105     6.0870E-4       1.00000       0.00000  
     106  hru0106                    hru         106     1.7407E-4       1.00000       0.00000  
     107  hru0107                    hru         107     1.2610E-3       1.00000       0.00000  
     108  hru0108                    hru         108     1.7757E-4       1.00000       0.00000  
     109  hru0109                    hru         109     3.7075E-5       1.00000       0.00000  
     110  hru0110                    hru         110     2.9719E-4       1.00000       0.00000  
     111  hru0111                    hru         111     2.0006E-4       1.00000       0.00000  
     112  hru0112                    hru         112     1.3741E-4       1.00000       0.00000  
     113  hru0113                    hru         113     2.4721E-4       1.00000       0.00000  
     114  hru0114                    hru         114     2.9565E-4       1.00000       0.00000  
     115  hru0115                    hru         115     3.2424E-4       1.00000       0.00000  
     116  hru0116                    hru         116     3.9697E-4       1.00000       0.00000  
     117  hru0117                    hru         117     2.0180E-3       1.00000       0.00000  
     118  hru0118                    hru         118     7.1259E-5       1.00000       0.00000  
     119  hru0119                    hru         119     4.4530E-4       1.00000       0.00000  
     120  hru0120                    hru         120     2.0618E-4       1.00000       0.00000  
     121  hru0121                    hru         121     5.8736E-4       1.00000       0.00000  
     122  hru0122                    hru         122     1.3526E-4       1.00000       0.00000  
     123  hru0123                    hru         123     9.8614E-5       1.00000       0.00000  
     124  hru0124                    hru         124     1.5522E-4       1.00000       0.00000  
     125  hru0125                    hru         125     2.5670E-4       1.00000       0.00000  
     126  hru0126                    hru         126     3.0161E-4       1.00000       0.00000  
     127  hru0127                    hru         127     1.8417E-4       1.00000       0.00000  
     128  hru0128                    hru         128     6.8555E-4       1.00000       0.00000  
     129  hru0129                    hru         129     5.2791E-4       1.00000       0.00000  
     130  hru0130                    hru         130     5.2351E-4       1.00000       0.00000  
     131  hru0131                    hru         131     8.8462E-5       1.00000       0.00000  
     132  hru0132                    hru         132     1.5102E-4       1.00000       0.00000  
     133  hru0133                    hru         133     1.0866E-4       1.00000       0.00000  
     134  hru0134                    hru         134     1.7362E-4       1.00000       0.00000  
     135  hru0135                    hru         135     5.9030E-5       1.00000       0.00000  
     136  hru0136                    hru         136     3.0918E-5       1.00000       0.00000  
     137  hru0137                    hru         137     1.3063E-4       1.00000       0.00000  
     138  hru0138                    hru         138     1.9028E-4       1.00000       0.00000  
     139  hru0139                    hru         139     1.1788E-4       1.00000       0.00000  
     140  hru0140                    hru         140     4.8988E-4       1.00000       0.00000  
     141  hru0141                    hru         141     5.4335E-4       1.00000       0.00000  
     142  hru0142                    hru         142     2.3481E-4       1.00000       0.00000  
     143  hru0143                    hru         143     1.0816E-3       1.00000       0.00000  
     144  hru0144                    hru         144     6.6054E-4       1.00000       0.00000  
     145  hru0145                    hru         145     5.8759E-5       1.00000       0.00000  
     146  hru0146                    hru         146     6.8704E-4       1.00000       0.00000  
     147  hru0147                    hru         147     3.3337E-4       1.00000       0.00000  
     148  hru0148                    hru         148     8.2182E-5       1.00000       0.00000  
     149  hru0149                    hru         149     6.9219E-5       1.00000       0.00000  
     150  hru0150                    hru         150     1.5793E-4       1.00000       0.00000  
     151  hru0151                    hru         151     6.0521E-5       1.00000       0.00000  
     152  hru0152                    hru         152     2.8265E-4       1.00000       0.00000  
     153  hru0153                    hru         153     2.4020E-3       1.00000       0.00000  
     154  hru0154                    hru         154     4.6865E-4       1.00000       0.00000  
     155  hru0155                    hru         155     3.2049E-6       1.00000       0.00000  
     156  hru0156                    hru         156     2.6464E-5       1.00000       0.00000  
     157  hru0157                    hru         157     2.7922E-5       1.00000       0.00000  
     158  hru0158                    hru         158     7.0603E-5       1.00000       0.00000  
     159  hru0159                    hru         159     1.8806E-5       1.00000       0.00000  
     160  hru0160                    hru         160     2.1029E-5       1.00000       0.00000  
     161  hru0161                    hru         161     3.1432E-5       1.00000       0.00000  
     162  hru0162                    hru         162     4.6607E-5       1.00000       0.00000  
     163  hru0163                    hru         163     3.4727E-5       1.00000       0.00000  
     164  hru0164                    hru         164     5.6461E-4       1.00000       0.00000  
     165  hru0165                    hru         165     4.9447E-5       1.00000       0.00000  
     166  hru0166                    hru         166     8.3859E-5       1.00000       0.00000  
     167  hru0167                    hru         167     1.7316E-5       1.00000       0.00000  
     168  hru0168                    hru         168     1.2497E-4       1.00000       0.00000  
     169  hru0169                    hru         169     2.5183E-4       1.00000       0.00000  
     170  hru0170                    hru         170     5.8797E-5       1.00000       0.00000  
     171  hru0171                    hru         171     5.0934E-5       1.00000       0.00000  
     172  hru0172                    hru         172     5.8811E-5       1.00000       0.00000  
     173  hru0173                    hru         173     3.2419E-5       1.00000       0.00000  
     174  hru0174                    hru         174     1.3132E-4       1.00000       0.00000  
     175  hru0175                    hru         175     5.0239E-5       1.00000       0.00000  
     176  hru0176                    hru         176     1.7269E-5       1.00000       0.00000  
     177  hru0177                    hru         177     2.1835E-4       1.00000       0.00000  
     178  hru0178                    hru         178     2.6729E-5       1.00000       0.00000  
     179  hru0179                    hru         179     3.8872E-5       1.00000       0.00000  
     180  hru0180                    hru         180     1.3286E-5       1.00000       0.00000  
     181  hru0181                    hru         181     3.4591E-5       1.00000       0.00000  
     182  hru0182                    hru         182     3.2643E-4       1.00000       0.00000  
     183  hru0183                    hru         183     8.0993E-4       1.00000       0.00000  
     184  hru0184                    hru         184     8.6518E-5       1.00000       0.00000  
     185  hru0185                    hru         185     3.4531E-5       1.00000       0.00000  
     186  hru0186                    hru         186     1.5519E-4       1.00000       0.00000  
     187  hru0187                    hru         187     3.1176E-5       1.00000       0.00000  
     188  hru0188                    hru         188     2.2493E-5       1.00000       0.00000  
     189  hru0189                    hru         189     1.4402E-4       1.00000       0.00000  
     190  hru0190                    hru         190     1.0985E-4       1.00000       0.00000  
     191  hru0191                    hru         191     2.5312E-5       1.00000       0.00000  
     192  hru0192                    hru         192     1.5379E-4       1.00000       0.00000  
     193  hru0193                    hru         193     7.1069E-5       1.00000       0.00000  
     194  hru0194                    hru         194     8.2509E-4       1.00000       0.00000  
     195  hru0195                    hru         195     6.2011E-5       1.00000       0.00000  
     196  hru0196                    hru         196     1.9920E-4       1.00000       0.00000  
     197  hru0197                    hru         197     2.1368E-4       1.00000       0.00000  
     198  hru0198                    hru         198     2.1748E-4       1.00000       0.00000  
     199  hru0199                    hru         199     2.4341E-5       1.00000       0.00000  
     200  hru0200                    hru         200     8.8240E-5       1.00000       0.00000  
     201  hru0201                    hru         201     2.3478E-4       1.00000       0.00000  
     202  hru0202                    hru         202     3.1968E-4       1.00000       0.00000  
     203  hru0203                    hru         203     5.5565E-3       1.00000       0.00000  
     204  hru0204                    hru         204     2.7208E-4       1.00000       0.00000  
     205  hru0205                    hru         205     1.3476E-4       1.00000       0.00000  
     206  hru0206                    hru         206     1.1236E-3       1.00000       0.00000  
     207  hru0207                    hru         207     1.7132E-3       1.00000       0.00000  
     208  hru0208                    hru         208     1.0763E-4       1.00000       0.00000  
     209  hru0209                    hru         209     5.7490E-4       1.00000       0.00000  
     210  hru0210                    hru         210     2.3511E-5       1.00000       0.00000  
     211  hru0211                    hru         211     1.7347E-4       1.00000       0.00000  
     212  hru0212                    hru         212     5.3482E-4       1.00000       0.00000  
     213  hru0213                    hru         213     2.0956E-3       1.00000       0.00000  
     214  hru0214                    hru         214     1.9902E-4       1.00000       0.00000  
     215  hru0215                    hru         215     1.1781E-3       1.00000       0.00000  
     216  hru0216                    hru         216     3.0256E-3       1.00000       0.00000  
     217  hru0217                    hru         217     3.6750E-4       1.00000       0.00000  
     218  hru0218                    hru         218     8.1651E-4       1.00000       0.00000  
     219  hru0219                    hru         219     5.3587E-5       1.00000       0.00000  
     220  hru0220                    hru         220     1.4556E-3       1.00000       0.00000  
     221  hru0221                    hru         221     4.3469E-5       1.00000       0.00000  
     222  hru0222                    hru         222     1.2506E-4       1.00000       0.00000  
     223  hru0223                    hru         223     4.8550E-5       1.00000       0.00000  
     224  hru0224                    hru         224     9.5455E-5       1.00000       0.00000  
     225  hru0225                    hru         225     6.8906E-5       1.00000       0.00000  
     226  hru0226                    hru         226     9.3945E-4       1.00000       0.00000  
     227  hru0227                    hru         227     3.4903E-4       1.00000       0.00000  
     228  hru0228                    hru         228     7.6570E-4       1.00000       0.00000  
     229  hru0229                    hru         229     5.5570E-4       1.00000       0.00000  
     230  hru0230                    hru         230     1.5581E-4       1.00000       0.00000  
     231  hru0231                    hru         231     3.7110E-5       1.00000       0.00000  
     232  hru0232                    hru         232     8.4903E-4       1.00000       0.00000  
     233  hru0233                    hru         233     5.7711E-4       1.00000       0.00000  
     234  hru0234                    hru         234     2.6540E-3       1.00000       0.00000  
     235  hru0235                    hru         235     2.9923E-3       1.00000       0.00000  
     236  hru0236                    hru         236     3.0512E-3       1.00000       0.00000  
     237  hru0237                    hru         237     6.3185E-4       1.00000       0.00000  
     238  hru0238                    hru         238     3.9551E-4       1.00000       0.00000  
     239  hru0239                    hru         239     4.2873E-5       1.00000       0.00000  
     240  hru0240                    hru         240     1.2983E-3       1.00000       0.00000  
     241  hru0241                    hru         241     3.0222E-4       1.00000       0.00000  
     242  hru0242                    hru         242     3.0349E-3       1.00000       0.00000  
     243  hru0243                    hru         243     1.0662E-3       1.00000       0.00000  
     244  hru0244                    hru         244     5.7682E-3       1.00000       0.00000  
     245  hru0245                    hru         245     5.9706E-3       1.00000       0.00000  
     246  hru0246                    hru         246     3.7463E-3       1.00000       0.00000  
     247  hru0247                    hru         247     1.8460E-3       1.00000       0.00000  
     248  hru0248                    hru         248     3.0038E-4       1.00000       0.00000  
     249  hru0249                    hru         249     4.2186E-4       1.00000       0.00000  
     250  hru0250                    hru         250     3.4957E-4       1.00000       0.00000  
     251  hru0251                    hru         251     1.3948E-4       1.00000       0.00000  
     252  hru0252                    hru         252     1.0288E-4       1.00000       0.00000  
     253  hru0253                    hru         253     3.2216E-4       1.00000       0.00000  
     254  hru0254                    hru         254     2.5048E-4       1.00000       0.00000  
     255  hru0255                    hru         255     8.8101E-4       1.00000       0.00000  
     256  hru0256                    hru         256     4.3314E-3       1.00000       0.00000  
     257  hru0257                    hru         257     6.0442E-4       1.00000       0.00000  
     258  hru0258                    hru         258     2.5835E-3       1.00000       0.00000  
     259  hru0259                    hru         259     1.3614E-3       1.00000       0.00000  
     260  hru0260                    hru         260     3.0549E-3       1.00000       0.00000  
     261  hru0261                    hru         261     1.4526E-4       1.00000       0.00000  
     262  hru0262                    hru         262     3.4427E-5       1.00000       0.00000  
     263  hru0263                    hru         263     5.1601E-5       1.00000       0.00000  
     264  hru0264                    hru         264     2.8950E-4       1.00000       0.00000  
     265  hru0265                    hru         265     1.3154E-4       1.00000       0.00000  
     266  hru0266                    hru         266     5.7860E-5       1.00000       0.00000  
     267  hru0267                    hru         267     6.7652E-5       1.00000       0.00000  
     268  hru0268                    hru         268     6.0737E-5       1.00000       0.00000  
     269  hru0269                    hru         269     5.2027E-5       1.00000       0.00000  
     270  hru0270                    hru         270     1.1955E-4       1.00000       0.00000  
     271  hru0271                    hru         271     3.7394E-4       1.00000       0.00000  
     272  hru0272                    hru         272     2.1491E-4       1.00000       0.00000  
     273  hru0273                    hru         273     1.2706E-4       1.00000       0.00000  
     274  hru0274                    hru         274     1.6107E-4       1.00000       0.00000  
     275  hru0275                    hru         275     7.0030E-4       1.00000       0.00000  
     276  hru0276                    hru         276     9.0741E-5       1.00000       0.00000  
     277  hru0277                    hru         277     3.0609E-4       1.00000       0.00000  
     278  hru0278                    hru         278     1.3127E-4       1.00000       0.00000  
     279  hru0279                    hru         279     2.7768E-4       1.00000       0.00000  
     280  hru0280                    hru         280     1.3805E-4       1.00000       0.00000  
     281  hru0281                    hru         281     2.8717E-5       1.00000       0.00000  
     282  hru0282                    hru         282     1.8472E-4       1.00000       0.00000  
     283  hru0283                    hru         283     1.6260E-2       1.00000       0.00000  
     284  hru0284                    hru         284     1.5533E-3       1.00000       0.00000  
     285  hru0285                    hru         285     1.2358E-4       1.00000       0.00000  
     286  hru0286                    hru         286     7.7410E-4       1.00000       0.00000  
     287  hru0287                    hru         287     3.6288E-4       1.00000       0.00000  
     288  hru0288                    hru         288     3.2551E-3       1.00000       0.00000  
     289  hru0289                    hru         289     1.7447E-4       1.00000       0.00000  
     290  hru0290                    hru         290     7.7674E-4       1.00000       0.00000  
     291  hru0291                    hru         291     4.8725E-4       1.00000       0.00000  
     292  hru0292                    hru         292     2.3401E-3       1.00000       0.00000  
     293  hru0293                    hru         293     3.8897E-4       1.00000       0.00000  
     294  hru0294                    hru         294     1.6250E-4       1.00000       0.00000  
     295  hru0295                    hru         295     6.4314E-3       1.00000       0.00000  
     296  hru0296                    hru         296     7.8500E-5       1.00000       0.00000  
     297  hru0297                    hru         297     3.3632E-4       1.00000       0.00000  
     298  hru0298                    hru         298     1.9797E-4       1.00000       0.00000  
     299  hru0299                    hru         299     8.7937E-4       1.00000       0.00000  
     300  hru0300                    hru         300     7.3931E-4       1.00000       0.00000  
     301  hru0301                    hru         301     2.4876E-3       1.00000       0.00000  
     302  hru0302                    hru         302     2.6253E-3       1.00000       0.00000  
     303  hru0303                    hru         303     4.4844E-4       1.00000       0.00000  
     304  hru0304                    hru         304     5.4589E-4       1.00000       0.00000  
     305  hru0305                    hru         305     3.6669E-3       1.00000       0.00000  
     306  hru0306                    hru         306     2.5606E-4       1.00000       0.00000  
     307  hru0307                    hru         307     2.4673E-4       1.00000       0.00000  