ls_unit.def: written by SWAT+ editor v2.2.0 on 2024-01-15 12:53 for SWAT+ rev.60.5.4
1162
      id              name          area  elem_tot  elements  
       1           rtu0001       0.17182         1         1  
       2           rtu0002       0.21694         1         2  
       3           rtu0003       1.44922         1         3  
       4           rtu0004       0.48225         1         4  
       5           rtu0005       0.58485         1         5  
       6           rtu0006       0.05551         1         6  
       7           rtu0007       1.09197         1         7  
       8           rtu0008       0.26372         1         8  
       9           rtu0009       1.05947         1         9  
      10           rtu0010       0.14653         1        10  
      11           rtu0011       0.10926         1        11  
      12           rtu0012       0.62707         1        12  
      13           rtu0013      20.35493         1        13  
      14           rtu0014       1.79695         1        14  
      15           rtu0015      20.28150         1        15  
      16           rtu0016       2.37951         1        16  
      17           rtu0017       0.09655         1        17  
      18           rtu0018       0.69155         1        18  
      19           rtu0019       1.09199         1        19  
      20           rtu0020       0.52360         1        20  
      21           rtu0021       0.09160         1        21  
      22           rtu0022       1.30301         1        22  
      23           rtu0023       0.02494         1        23  
      24           rtu0024       0.10679         1        24  
      25           rtu0025       1.66371         1        25  
      26           rtu0026       0.29910         1        26  
      27           rtu0027       0.22739         1        27  
      28           rtu0028       0.29032         1        28  
      29           rtu0029       1.24522         1        29  
      30           rtu0030       0.65687         1        30  
      31           rtu0031       0.25214         1        31  
      32           rtu0032       0.48527         1        32  
      33           rtu0033       1.54661         1        33  
      34           rtu0034       0.14960         1        34  
      35           rtu0035       2.63864         1        35  
      36           rtu0036       1.03385         1        36  
      37           rtu0037       1.81329         1        37  
      38           rtu0038       0.04031         1        38  
      39           rtu0039       5.29119         1        39  
      40           rtu0040       1.14310         1        40  
      41           rtu0041       4.70243         1        41  
      42           rtu0042       1.53300         1        42  
      43           rtu0043       3.49251         1        43  
      44           rtu0044       5.17682         1        44  
      45           rtu0045       3.47257         1        45  
      46           rtu0046       1.00758         1        46  
      47           rtu0047       0.87334         1        47  
      48           rtu0048       0.84881         1        48  
      49           rtu0049       0.29656         1        49  
      50           rtu0050       0.91330         1        50  
      51           rtu0051       0.46677         1        51  
      52           rtu0052       1.05409         1        52  
      53           rtu0053       0.50523         1        53  
      54           rtu0054       4.04506         1        54  
      55           rtu0055       0.14809         1        55  
      56           rtu0056       0.82645         1        56  
      57           rtu0057       4.16641         1        57  
      58           rtu0058       0.88239         1        58  
      59           rtu0059       0.26285         1        59  
      60           rtu0060       0.17757         1        60  
      61           rtu0061       0.24218         1        61  
      62           rtu0062       0.42895         1        62  
      63           rtu0063       0.53334         1        63  
      64           rtu0064       0.27522         1        64  
      65           rtu0065       0.15662         1        65  
      66           rtu0066       3.07454         1        66  
      67           rtu0067       0.10614         1        67  
      68           rtu0068       1.43700         1        68  
      69           rtu0069       3.80616         1        69  
      70           rtu0070       0.04301         1        70  
      71           rtu0071       0.32436         1        71  
      72           rtu0072       0.04214         1        72  
      73           rtu0073       0.14933         1        73  
      74           rtu0074       6.39843         1        74  
      75           rtu0075       0.07192         1        75  
      76           rtu0076       0.05430         1        76  
      77           rtu0077       0.52339         1        77  
      78           rtu0078       0.55913         1        78  
      79           rtu0079       1.26997         1        79  
      80           rtu0080       0.52169         1        80  
      81           rtu0081       1.23542         1        81  
      82           rtu0082       0.20068         1        82  
      83           rtu0083       2.87766         1        83  
      84           rtu0084       1.83138         1        84  
      85           rtu0085       4.40551         1        85  
      86           rtu0086       2.00801         1        86  
      87           rtu0087       1.10797         1        87  
      88           rtu0088       0.19714         1        88  
      89           rtu0089       2.72718         1        89  
      90           rtu0090       3.29967         1        90  
      91           rtu0091       0.79020         1        91  
      92           rtu0092       5.18909         1        92  
      93           rtu0093       0.19138         1        93  
      94           rtu0094       0.31887         1        94  
      95           rtu0095      57.63915         1        95  
      96           rtu0096       0.11473         1        96  
      97           rtu0097       0.49085         1        97  
      98           rtu0098       0.33616         1        98  
      99           rtu0099       0.58461         1        99  
     100           rtu0100       0.99729         1       100  
     101           rtu0101       3.63935         1       101  
     102           rtu0102       5.73701         1       102  
     103           rtu0103       2.49726         1       103  
     104           rtu0104      14.35513         1       104  
     105           rtu0105       4.40506         1       105  
     106           rtu0106       1.25972         1       106  
     107           rtu0107       9.12539         1       107  
     108           rtu0108       1.28503         1       108  
     109           rtu0109       0.26830         1       109  
     110           rtu0110       2.15074         1       110  
     111           rtu0111       1.44777         1       111  
     112           rtu0112       0.99438         1       112  
     113           rtu0113       1.78902         1       113  
     114           rtu0114       2.13958         1       114  
     115           rtu0115       2.34645         1       115  
     116           rtu0116       2.87283         1       116  
     117           rtu0117      14.60370         1       117  
     118           rtu0118       0.51569         1       118  
     119           rtu0119       3.22260         1       119  
     120           rtu0120       1.49211         1       120  
     121           rtu0121       4.25060         1       121  
     122           rtu0122       0.97883         1       122  
     123           rtu0123       0.71366         1       123  
     124           rtu0124       1.12330         1       124  
     125           rtu0125       1.85767         1       125  
     126           rtu0126       2.18269         1       126  
     127           rtu0127       1.33283         1       127  
     128           rtu0128       4.96124         1       128  
     129           rtu0129       3.82040         1       129  
     130           rtu0130       3.78857         1       130  
     131           rtu0131       0.64019         1       131  
     132           rtu0132       1.09288         1       132  
     133           rtu0133       0.78635         1       133  
     134           rtu0134       1.25644         1       134  
     135           rtu0135       0.42719         1       135  
     136           rtu0136       0.22375         1       136  
     137           rtu0137       0.94532         1       137  
     138           rtu0138       1.37701         1       138  
     139           rtu0139       0.85311         1       139  
     140           rtu0140       3.54519         1       140  
     141           rtu0141       3.93217         1       141  
     142           rtu0142       1.69932         1       142  
     143           rtu0143       7.82738         1       143  
     144           rtu0144       4.78021         1       144  
     145           rtu0145       0.42523         1       145  
     146           rtu0146       4.97201         1       146  
     147           rtu0147       2.41257         1       147  
     148           rtu0148       0.59474         1       148  
     149           rtu0149       0.50093         1       149  
     150           rtu0150       1.14295         1       150  
     151           rtu0151       0.43798         1       151  
     152           rtu0152       2.04551         1       152  
     153           rtu0153      17.38266         1       153  
     154           rtu0154       3.39153         1       154  
     155           rtu0155       0.02319         1       155  
     156           rtu0156       0.19151         1       156  
     157           rtu0157       0.20207         1       157  
     158           rtu0158       0.51094         1       158  
     159           rtu0159       0.13610         1       159  
     160           rtu0160       0.15218         1       160  
     161           rtu0161       0.22747         1       161  
     162           rtu0162       0.33729         1       162  
     163           rtu0163       0.25131         1       163  
     164           rtu0164       4.08597         1       164  
     165           rtu0165       0.35784         1       165  
     166           rtu0166       0.60687         1       166  
     167           rtu0167       0.12531         1       167  
     168           rtu0168       0.90438         1       168  
     169           rtu0169       1.82244         1       169  
     170           rtu0170       0.42550         1       170  
     171           rtu0171       0.36860         1       171  
     172           rtu0172       0.42560         1       172  
     173           rtu0173       0.23461         1       173  
     174           rtu0174       0.95031         1       174  
     175           rtu0175       0.36358         1       175  
     176           rtu0176       0.12497         1       176  
     177           rtu0177       1.58014         1       177  
     178           rtu0178       0.19343         1       178  
     179           rtu0179       0.28131         1       179  
     180           rtu0180       0.09615         1       180  
     181           rtu0181       0.25033         1       181  
     182           rtu0182       2.36235         1       182  
     183           rtu0183       5.86131         1       183  
     184           rtu0184       0.62612         1       184  
     185           rtu0185       0.24990         1       185  
     186           rtu0186       1.12308         1       186  
     187           rtu0187       0.22562         1       187  
     188           rtu0188       0.16278         1       188  
     189           rtu0189       1.04222         1       189  
     190           rtu0190       0.79499         1       190  
     191           rtu0191       0.18318         1       191  
     192           rtu0192       1.11299         1       192  
     193           rtu0193       0.51432         1       193  
     194           rtu0194       5.97106         1       194  
     195           rtu0195       0.44877         1       195  
     196           rtu0196       1.44161         1       196  
     197           rtu0197       1.54635         1       197  
     198           rtu0198       1.57388         1       198  
     199           rtu0199       0.17615         1       199  
     200           rtu0200       0.63858         1       200  
     201           rtu0201       1.69910         1       201  
     202           rtu0202       2.31346         1       202  
     203           rtu0203      40.21186         1       203  
     204           rtu0204       1.96898         1       204  
     205           rtu0205       0.97525         1       205  
     206           rtu0206       8.13156         1       206  
     207           rtu0207      12.39784         1       207  
     208           rtu0208       0.77893         1       208  
     209           rtu0209       4.16046         1       209  
     210           rtu0210       0.17015         1       210  
     211           rtu0211       1.25539         1       211  
     212           rtu0212       3.87040         1       212  
     213           rtu0213      15.16579         1       213  
     214           rtu0214       1.44026         1       214  
     215           rtu0215       8.52566         1       215  
     216           rtu0216      21.89613         1       216  
     217           rtu0217       2.65958         1       217  
     218           rtu0218       5.90895         1       218  
     219           rtu0219       0.38780         1       219  
     220           rtu0220      10.53368         1       220  
     221           rtu0221       0.31458         1       221  
     222           rtu0222       0.90503         1       222  
     223           rtu0223       0.35135         1       223  
     224           rtu0224       0.69080         1       224  
     225           rtu0225       0.49866         1       225  
     226           rtu0226       6.79870         1       226  
     227           rtu0227       2.52591         1       227  
     228           rtu0228       5.54126         1       228  
     229           rtu0229       4.02154         1       229  
     230           rtu0230       1.12757         1       230  
     231           rtu0231       0.26856         1       231  
     232           rtu0232       6.14431         1       232  
     233           rtu0233       4.17649         1       233  
     234           rtu0234      19.20649         1       234  
     235           rtu0235      21.65514         1       235  
     236           rtu0236      22.08129         1       236  
     237           rtu0237       4.57260         1       237  
     238           rtu0238       2.86227         1       238  
     239           rtu0239       0.31027         1       239  
     240           rtu0240       9.39549         1       240  
     241           rtu0241       2.18709         1       241  
     242           rtu0242      21.96342         1       242  
     243           rtu0243       7.71573         1       243  
     244           rtu0244      41.74398         1       244  
     245           rtu0245      43.20812         1       245  
     246           rtu0246      27.11173         1       246  
     247           rtu0247      13.35911         1       247  
     248           rtu0248       2.17383         1       248  
     249           rtu0249       3.05294         1       249  
     250           rtu0250       2.52977         1       250  
     251           rtu0251       1.00938         1       251  
     252           rtu0252       0.74454         1       252  
     253           rtu0253       2.33145         1       253  
     254           rtu0254       1.81268         1       254  
     255           rtu0255       6.37576         1       255  
     256           rtu0256      31.34544         1       256  
     257           rtu0257       4.37410         1       257  
     258           rtu0258      18.69656         1       258  
     259           rtu0259       9.85224         1       259  
     260           rtu0260      22.10817         1       260  
     261           rtu0261       1.05126         1       261  
     262           rtu0262       0.24914         1       262  
     263           rtu0263       0.37343         1       263  
     264           rtu0264       2.09504         1       264  
     265           rtu0265       0.95191         1       265  
     266           rtu0266       0.41873         1       266  
     267           rtu0267       0.48959         1       267  
     268           rtu0268       0.43955         1       268  
     269           rtu0269       0.37651         1       269  
     270           rtu0270       0.86519         1       270  
     271           rtu0271       2.70617         1       271  
     272           rtu0272       1.55525         1       272  
     273           rtu0273       0.91952         1       273  
     274           rtu0274       1.16568         1       274  
     275           rtu0275       5.06798         1       275  
     276           rtu0276       0.65668         1       276  
     277           rtu0277       2.21509         1       277  
     278           rtu0278       0.95002         1       278  
     279           rtu0279       2.00950         1       279  
     280           rtu0280       0.99904         1       280  
     281           rtu0281       0.20782         1       281  
     282           rtu0282       1.33677         1       282  
     283           rtu0283     117.66986         1       283  
     284           rtu0284      11.24110         1       284  
     285           rtu0285       0.89432         1       285  
     286           rtu0286       5.60205         1       286  
     287           rtu0287       2.62610         1       287  
     288           rtu0288      23.55654         1       288  
     289           rtu0289       1.26262         1       289  
     290           rtu0290       5.62119         1       290  
     291           rtu0291       3.52612         1       291  
     292           rtu0292      16.93494         1       292  
     293           rtu0293       2.81491         1       293  
     294           rtu0294       1.17597         1       294  
     295           rtu0295      46.54340         1       295  
     296           rtu0296       0.56810         1       296  
     297           rtu0297       2.43391         1       297  
     298           rtu0298       1.43265         1       298  
     299           rtu0299       6.36385         1       299  
     300           rtu0300       5.35029         1       300  
     301           rtu0301      18.00268         1       301  
     302           rtu0302      18.99894         1       302  
     303           rtu0303       3.24531         1       303  
     304           rtu0304       3.95051         1       304  
     305           rtu0305      26.53669         1       305  
     306           rtu0306       1.85309         1       306  
     307           rtu0307       1.78557         1       307  
     308           rtu0308       1.47697         1       308  
     309           rtu0309       0.99349         1       309  
     310           rtu0310       3.63787         1       310  
     311           rtu0311     149.14018         1       311  
     312           rtu0312      10.81091         1       312  
     313           rtu0313       2.64218         1       313  
     314           rtu0314       0.41902         1       314  
     315           rtu0315       4.51056         1       315  
     316           rtu0316       1.62730         1       316  
     317           rtu0317      11.49710         1       317  
     318           rtu0318      21.20120         1       318  
     319           rtu0319       0.62876         1       319  
     320           rtu0320       1.33568         1       320  
     321           rtu0321       0.88461         1       321  
     322           rtu0322       1.66213         1       322  
     323           rtu0323       0.83285         1       323  
     324           rtu0324       7.96611         1       324  
     325           rtu0325       0.04574         1       325  
     326           rtu0326       0.36384         1       326  
     327           rtu0327      24.38230         1       327  
     328           rtu0328       7.03781         1       328  
     329           rtu0329       0.58912         1       329  
     330           rtu0330       9.23320         1       330  
     331           rtu0331       1.32645         1       331  
     332           rtu0332       4.84389         1       332  
     333           rtu0333       2.84150         1       333  
     334           rtu0334       0.51979         1       334  
     335           rtu0335       4.07455         1       335  
     336           rtu0336      11.29817         1       336  
     337           rtu0337       3.09583         1       337  
     338           rtu0338       3.80748         1       338  
     339           rtu0339      10.00907         1       339  
     340           rtu0340       5.00651         1       340  
     341           rtu0341       4.89988         1       341  
     342           rtu0342      21.34774         1       342  
     343           rtu0343       1.63404         1       343  
     344           rtu0344       2.17706         1       344  
     345           rtu0345       0.12041         1       345  
     346           rtu0346       0.64674         1       346  
     347           rtu0347       4.43685         1       347  
     348           rtu0348       0.77834         1       348  
     349           rtu0349      11.25052         1       349  
     350           rtu0350       5.87053         1       350  
     351           rtu0351       6.75104         1       351  
     352           rtu0352       3.15950         1       352  
     353           rtu0353       4.89733         1       353  
     354           rtu0354       1.94413         1       354  
     355           rtu0355       0.09303         1       355  
     356           rtu0356       1.06102         1       356  
     357           rtu0357      24.56778         1       357  
     358           rtu0358       3.09189         1       358  
     359           rtu0359       2.66262         1       359  
     360           rtu0360       4.15631         1       360  
     361           rtu0361       3.93984         1       361  
     362           rtu0362       5.74025         1       362  
     363           rtu0363       0.92499         1       363  
     364           rtu0364      53.76805         1       364  
     365           rtu0365       3.43618         1       365  
     366           rtu0366       3.36650         1       366  
     367           rtu0367      20.31495         1       367  
     368           rtu0368     105.62141         1       368  
     369           rtu0369       6.21980         1       369  
     370           rtu0370       1.58661         1       370  
     371           rtu0371      20.62027         1       371  
     372           rtu0372      22.37242         1       372  
     373           rtu0373      14.29219         1       373  
     374           rtu0374       6.50048         1       374  
     375           rtu0375       7.87369         1       375  
     376           rtu0376       2.46505         1       376  
     377           rtu0377       8.79716         1       377  
     378           rtu0378       9.26101         1       378  
     379           rtu0379       0.80426         1       379  
     380           rtu0380       0.78525         1       380  
     381           rtu0381       1.39684         1       381  
     382           rtu0382       0.85783         1       382  
     383           rtu0383      88.07372         1       383  
     384           rtu0384       4.55755         1       384  
     385           rtu0385       1.28810         1       385  
     386           rtu0386       2.79694         1       386  
     387           rtu0387       3.12961         1       387  
     388           rtu0388       0.66314         1       388  
     389           rtu0389       8.81126         1       389  
     390           rtu0390       0.12596         1       390  
     391           rtu0391       1.48615         1       391  
     392           rtu0392       6.75162         1       392  
     393           rtu0393       6.62197         1       393  
     394           rtu0394       2.73659         1       394  
     395           rtu0395      15.28093         1       395  
     396           rtu0396      60.76069         1       396  
     397           rtu0397       0.20017         1       397  
     398           rtu0398       0.48140         1       398  
     399           rtu0399       6.05165         1       399  
     400           rtu0400       1.78936         1       400  
     401           rtu0401       1.25683         1       401  
     402           rtu0402       9.03233         1       402  
     403           rtu0403      35.99977         1       403  
     404           rtu0404      19.56973         1       404  
     405           rtu0405      49.52788         1       405  
     406           rtu0406       0.35654         1       406  
     407           rtu0407       2.02170         1       407  
     408           rtu0408       0.52671         1       408  
     409           rtu0409       2.44014         1       409  
     410           rtu0410      36.19054         1       410  
     411           rtu0411       7.01673         1       411  
     412           rtu0412      13.58457         1       412  
     413           rtu0413      12.48202         1       413  
     414           rtu0414      42.32789         1       414  
     415           rtu0415      13.39713         1       415  
     416           rtu0416       0.03514         1       416  
     417           rtu0417       5.46002         1       417  
     418           rtu0418      12.29740         1       418  
     419           rtu0419      23.94176         1       419  
     420           rtu0420       0.58150         1       420  
     421           rtu0421      14.62259         1       421  
     422           rtu0422       0.50902         1       422  
     423           rtu0423       4.29602         1       423  
     424           rtu0424       1.56668         1       424  
     425           rtu0425       3.33084         1       425  
     426           rtu0426       0.76452         1       426  
     427           rtu0427       1.24638         1       427  
     428           rtu0428       0.53138         1       428  
     429           rtu0429       2.04469         1       429  
     430           rtu0430     115.62096         1       430  
     431           rtu0431       1.10197         1       431  
     432           rtu0432     112.69879         1       432  
     433           rtu0433       5.52618         1       433  
     434           rtu0434       4.87457         1       434  
     435           rtu0435       3.16500         1       435  
     436           rtu0436       3.13011         1       436  
     437           rtu0437       0.97417         1       437  
     438           rtu0438      15.81259         1       438  
     439           rtu0439      11.35088         1       439  
     440           rtu0440       0.12672         1       440  
     441           rtu0441      14.16747         1       441  
     442           rtu0442      21.54184         1       442  
     443           rtu0443       1.64360         1       443  
     444           rtu0444      90.84661         1       444  
     445           rtu0445       7.10470         1       445  
     446           rtu0446       8.41819         1       446  
     447           rtu0447      10.56758         1       447  
     448           rtu0448       2.01066         1       448  
     449           rtu0449       5.83636         1       449  
     450           rtu0450       0.54539         1       450  
     451           rtu0451      10.35732         1       451  
     452           rtu0452      15.57145         1       452  
     453           rtu0453       0.08542         1       453  
     454           rtu0454       8.62763         1       454  
     455           rtu0455       0.21877         1       455  
     456           rtu0456       0.52735         1       456  
     457           rtu0457     100.06490         1       457  
     458           rtu0458      81.55095         1       458  
     459           rtu0459       4.45217         1       459  
     460           rtu0460       0.18655         1       460  
     461           rtu0461       0.71870         1       461  
     462           rtu0462       1.51954         1       462  
     463           rtu0463      23.29540         1       463  
     464           rtu0464       0.51535         1       464  
     465           rtu0465       0.43480         1       465  
     466           rtu0466       3.17816         1       466  
     467           rtu0467       0.34818         1       467  
     468           rtu0468       0.30969         1       468  
     469           rtu0469       2.01035         1       469  
     470           rtu0470       2.27768         1       470  
     471           rtu0471       0.18106         1       471  
     472           rtu0472       1.25514         1       472  
     473           rtu0473       7.55553         1       473  