nutrients.sol: written by SWAT+ editor v2.2.0 on 2024-01-15 12:53 for SWAT+ rev.60.5.4, edited manually on 2024-07-29 12:49:41.008398
name                         exp_co                lab_p           nitrate        fr_hum_act           hum_c_n           hum_c_p            inorgp        watersol_p             h3a_p         mehlich_p     bray_strong_p       description
soilnut0001                       0.0005             18.81                 7              0.02                10                80                 0                 0                 0                 0                 0                  
soilnut0002                       0.0005             18.81                 7              0.02                10                80                 0                 0                 0                 0                 0                  
soilnut0003                       0.0005             18.81                 7              0.02                10                80                 0                 0                 0                 0                 0                  
soilnut0004                       0.0005             18.81                 7              0.02                10                80                 0                 0                 0                 0                 0                  
soilnut0005                       0.0005             18.81                 7              0.02                10                80                 0                 0                 0                 0                 0                  
soilnut0006                       0.0005              9.82                 7              0.02                10                80                 0                 0                 0                 0                 0                  
soilnut0007                       0.0005             18.81                 7              0.02                10                80                 0                 0                 0                 0                 0                  
soilnut0008                       0.0005              9.09                 7              0.02                10                80                 0                 0                 0                 0                 0                  
soilnut0009                       0.0005             18.81                 7              0.02                10                80                 0                 0                 0                 0                 0                  
soilnut0010                       0.0005             18.81                 7              0.02                10                80                 0                 0                 0                 0                 0                  
soilnut0011                       0.0005             18.81                 7              0.02                10                80                 0                 0                 0                 0                 0                  
soilnut0012                       0.0005             18.81                 7              0.02                10                80                 0                 0                 0                 0                 0                  
soilnut0013                       0.0005             21.87                 7              0.02                10                80                 0                 0                 0                 0                 0                  
soilnut0014                       0.0005             18.81                 7              0.02                10                80                 0                 0                 0                 0                 0                  
soilnut0015                       0.0005             19.78                 7              0.02                10                80                 0                 0                 0                 0                 0                  
soilnut0016                       0.0005             19.78                 7              0.02                10                80                 0                 0                 0                 0                 0                  
soilnut0017                       0.0005             18.81                 7              0.02                10                80                 0                 0                 0                 0                 0                  
soilnut0018                       0.0005             18.81                 7              0.02                10                80                 0                 0                 0                 0                 0                  
soilnut0019                       0.0005              9.82                 7              0.02                10                80                 0                 0                 0                 0                 0                  
soilnut0020                       0.0005             18.81                 7              0.02                10                80                 0                 0                 0                 0                 0                  
soilnut0021                       0.0005             18.81                 7              0.02                10                80                 0                 0                 0                 0                 0                  
soilnut0022                       0.0005             18.81                 7              0.02                10                80                 0                 0                 0                 0                 0                  
soilnut0023                       0.0005             18.81                 7              0.02                10                80                 0                 0                 0                 0                 0                  
soilnut0024                       0.0005              9.82                 7              0.02                10                80                 0                 0                 0                 0                 0                  
soilnut0025                       0.0005             18.81                 7              0.02                10                80                 0                 0                 0                 0                 0                  
soilnut0026                       0.0005             18.81                 7              0.02                10                80                 0                 0                 0                 0                 0                  
soilnut0027                       0.0005             18.81                 7              0.02                10                80                 0                 0                 0                 0                 0                  
soilnut0028                       0.0005             18.81                 7              0.02                10                80                 0                 0                 0                 0                 0                  
soilnut0029                       0.0005             18.81                 7              0.02                10                80                 0                 0                 0                 0                 0                  
soilnut0030                       0.0005             18.81                 7              0.02                10                80                 0                 0                 0                 0                 0                  
soilnut0031                       0.0005             18.81                 7              0.02                10                80                 0                 0                 0                 0                 0                  
soilnut0032                       0.0005             18.81                 7              0.02                10                80                 0                 0                 0                 0                 0                  
soilnut0033                       0.0005             19.78                 7              0.02                10                80                 0                 0                 0                 0                 0                  
soilnut0034                       0.0005              9.09                 7              0.02                10                80                 0                 0                 0                 0                 0                  
soilnut0035                       0.0005             19.78                 7              0.02                10                80                 0                 0                 0                 0                 0                  
soilnut0036                       0.0005             19.78                 7              0.02                10                80                 0                 0                 0                 0                 0                  
soilnut0037                       0.0005             19.78                 7              0.02                10                80                 0                 0                 0                 0                 0                  
soilnut0038                       0.0005             19.78                 7              0.02                10                80                 0                 0                 0                 0                 0                  
soilnut0039                       0.0005             19.78                 7              0.02                10                80                 0                 0                 0                 0                 0                  
soilnut0040                       0.0005             19.78                 7              0.02                10                80                 0                 0                 0                 0                 0                  
soilnut0041                       0.0005             19.78                 7              0.02                10                80                 0                 0                 0                 0                 0                  
soilnut0042                       0.0005             19.78                 7              0.02                10                80                 0                 0                 0                 0                 0                  
soilnut0043                       0.0005             11.83                 7              0.02                10                80                 0                 0                 0                 0                 0                  
soilnut0044                       0.0005             19.78                 7              0.02                10                80                 0                 0                 0                 0                 0                  
soilnut0045                       0.0005             19.78                 7              0.02                10                80                 0                 0                 0                 0                 0                  
soilnut0046                       0.0005             18.81                 7              0.02                10                80                 0                 0                 0                 0                 0                  
soilnut0047                       0.0005             18.81                 7              0.02                10                80                 0                 0                 0                 0                 0                  
soilnut0048                       0.0005             19.78                 7              0.02                10                80                 0                 0                 0                 0                 0                  
soilnut0049                       0.0005             18.81                 7              0.02                10                80                 0                 0                 0                 0                 0                  
soilnut0050                       0.0005             18.81                 7              0.02                10                80                 0                 0                 0                 0                 0                  
soilnut0051                       0.0005             18.81                 7              0.02                10                80                 0                 0                 0                 0                 0                  
soilnut0052                       0.0005             13.62                 7              0.02                10                80                 0                 0                 0                 0                 0                  
soilnut0053                       0.0005             13.62                 7              0.02                10                80                 0                 0                 0                 0                 0                  
soilnut0054                       0.0005             19.78                 7              0.02                10                80                 0                 0                 0                 0                 0                  
soilnut0055                       0.0005             18.81                 7              0.02                10                80                 0                 0                 0                 0                 0                  
soilnut0056                       0.0005             13.62                 7              0.02                10                80                 0                 0                 0                 0                 0                  
soilnut0057                       0.0005             19.78                 7              0.02                10                80                 0                 0                 0                 0                 0                  
soilnut0058                       0.0005             19.78                 7              0.02                10                80                 0                 0                 0                 0                 0                  
soilnut0059                       0.0005             15.47                 7              0.02                10                80                 0                 0                 0                 0                 0                  
soilnut0060                       0.0005             18.81                 7              0.02                10                80                 0                 0                 0                 0                 0                  
soilnut0061                       0.0005             18.81                 7              0.02                10                80                 0                 0                 0                 0                 0                  
soilnut0062                       0.0005             18.81                 7              0.02                10                80                 0                 0                 0                 0                 0                  
soilnut0063                       0.0005             18.81                 7              0.02                10                80                 0                 0                 0                 0                 0                  
soilnut0064                       0.0005             18.81                 7              0.02                10                80                 0                 0                 0                 0                 0                  
soilnut0065                       0.0005             18.81                 7              0.02                10                80                 0                 0                 0                 0                 0                  
soilnut0066                       0.0005             18.81                 7              0.02                10                80                 0                 0                 0                 0                 0                  
soilnut0067                       0.0005             18.81                 7              0.02                10                80                 0                 0                 0                 0                 0                  
soilnut0068                       0.0005             19.78                 7              0.02                10                80                 0                 0                 0                 0                 0                  
soilnut0069                       0.0005             13.62                 7              0.02                10                80                 0                 0                 0                 0                 0                  
soilnut0070                       0.0005             18.81                 7              0.02                10                80                 0                 0                 0                 0                 0                  
soilnut0071                       0.0005             18.81                 7              0.02                10                80                 0                 0                 0                 0                 0                  
soilnut0072                       0.0005             18.81                 7              0.02                10                80                 0                 0                 0                 0                 0                  
soilnut0073                       0.0005             18.81                 7              0.02                10                80                 0                 0                 0                 0                 0                  
soilnut0074                       0.0005             18.81                 7              0.02                10                80                 0                 0                 0                 0                 0                  
soilnut0075                       0.0005             18.81                 7              0.02                10                80                 0                 0                 0                 0                 0                  
soilnut0076                       0.0005             18.81                 7              0.02                10                80                 0                 0                 0                 0                 0                  
soilnut0077                       0.0005             19.78                 7              0.02                10                80                 0                 0                 0                 0                 0                  
soilnut0078                       0.0005             18.81                 7              0.02                10                80                 0                 0                 0                 0                 0                  
soilnut0079                       0.0005             18.81                 7              0.02                10                80                 0                 0                 0                 0                 0                  
soilnut0080                       0.0005             18.81                 7              0.02                10                80                 0                 0                 0                 0                 0                  
soilnut0081                       0.0005             18.81                 7              0.02                10                80                 0                 0                 0                 0                 0                  
soilnut0082                       0.0005             18.81                 7              0.02                10                80                 0                 0                 0                 0                 0                  
soilnut0083                       0.0005             18.81                 7              0.02                10                80                 0                 0                 0                 0                 0                  
soilnut0084                       0.0005             18.81                 7              0.02                10                80                 0                 0                 0                 0                 0                  
soilnut0085                       0.0005             15.47                 7              0.02                10                80                 0                 0                 0                 0                 0                  
soilnut0086                       0.0005             18.81                 7              0.02                10                80                 0                 0                 0                 0                 0                  
soilnut0087                       0.0005             18.81                 7              0.02                10                80                 0                 0                 0                 0                 0                  
soilnut0088                       0.0005             13.62                 7              0.02                10                80                 0                 0                 0                 0                 0                  
soilnut0089                       0.0005             13.62                 7              0.02                10                80                 0                 0                 0                 0                 0                  
soilnut0090                       0.0005             19.78                 7              0.02                10                80                 0                 0                 0                 0                 0                  
soilnut0091                       0.0005             21.87                 7              0.02                10                80                 0                 0                 0                 0                 0                  
soilnut0092                       0.0005             21.87                 7              0.02                10                80                 0                 0                 0                 0                 0                  
soilnut0093                       0.0005             15.47                 7              0.02                10                80                 0                 0                 0                 0                 0                  
soilnut0094                       0.0005              9.09                 7              0.02                10                80                 0                 0                 0                 0                 0                  
soilnut0095                       0.0005             13.62                 7              0.02                10                80                 0                 0                 0                 0                 0                  
soilnut0096                       0.0005             18.03                 7              0.02                10                80                 0                 0                 0                 0                 0                  
soilnut0097                       0.0005             19.78                 7              0.02                10                80                 0                 0                 0                 0                 0                  
soilnut0098                       0.0005             19.78                 7              0.02                10                80                 0                 0                 0                 0                 0                  
soilnut0099                       0.0005             18.81                 7              0.02                10                80                 0                 0                 0                 0                 0                  
soilnut0100                       0.0005             21.87                 7              0.02                10                80                 0                 0                 0                 0                 0                  
soilnut0101                       0.0005             21.87                 7              0.02                10                80                 0                 0                 0                 0                 0                  
soilnut0102                       0.0005             18.81                 7              0.02                10                80                 0                 0                 0                 0                 0                  
soilnut0103                       0.0005             19.78                 7              0.02                10                80                 0                 0                 0                 0                 0                  
soilnut0104                       0.0005             19.78                 7              0.02                10                80                 0                 0                 0                 0                 0                  
soilnut0105                       0.0005             13.62                 7              0.02                10                80                 0                 0                 0                 0                 0                  
soilnut0106                       0.0005             18.81                 7              0.02                10                80                 0                 0                 0                 0                 0                  
soilnut0107                       0.0005             13.62                 7              0.02                10                80                 0                 0                 0                 0                 0                  
soilnut0108                       0.0005             18.81                 7              0.02                10                80                 0                 0                 0                 0                 0                  
soilnut0109                       0.0005             18.81                 7              0.02                10                80                 0                 0                 0                 0                 0                  
soilnut0110                       0.0005             19.78                 7              0.02                10                80                 0                 0                 0                 0                 0                  
soilnut0111                       0.0005             19.78                 7              0.02                10                80                 0                 0                 0                 0                 0                  
soilnut0112                       0.0005             19.78                 7              0.02                10                80                 0                 0                 0                 0                 0                  
soilnut0113                       0.0005             19.78                 7              0.02                10                80                 0                 0                 0                 0                 0                  
soilnut0114                       0.0005             18.03                 7              0.02                10                80                 0                 0                 0                 0                 0                  
soilnut0115                       0.0005             19.78                 7              0.02                10                80                 0                 0                 0                 0                 0                  
soilnut0116                       0.0005             19.78                 7              0.02                10                80                 0                 0                 0                 0                 0                  
soilnut0117                       0.0005             21.87                 7              0.02                10                80                 0                 0                 0                 0                 0                  
soilnut0118                       0.0005             19.78                 7              0.02                10                80                 0                 0                 0                 0                 0                  
soilnut0119                       0.0005             21.87                 7              0.02                10                80                 0                 0                 0                 0                 0                  
soilnut0120                       0.0005             21.87                 7              0.02                10                80                 0                 0                 0                 0                 0                  
soilnut0121                       0.0005             19.78                 7              0.02                10                80                 0                 0                 0                 0                 0                  
soilnut0122                       0.0005             18.81                 7              0.02                10                80                 0                 0                 0                 0                 0                  
soilnut0123                       0.0005             18.81                 7              0.02                10                80                 0                 0                 0                 0                 0                  