object.cnt: written by SWAT+ editor v2.2.0 on 2024-01-15 12:53 for SWAT+ rev.60.5.4
name                   ls_area      tot_area       obj       hru      lhru       rtu       mfl       aqu       cha       res       rec      exco       dlr       can       pmp       out      lcha     aqu2d       hrd       wro  
tetves_data         7236.85642    7236.85642      2349      1162         0      1162         0         1         0         0         0         0         0         0         0         0        24         0         0         0  
