plant.ini: written by SWAT+ editor v2.2.0 on 2024-01-15 12:53 for SWAT+ rev.60.5.4 and edited with SWATfarmR 2.0.5 on 2024-07-29 13:25:35.54766
pcom_name          plt_cnt  rot_yr_ini          plt_name     lc_status      lai_init       bm_init      phu_init      plnt_pop      yrs_init      rsd_init  
field_100_comm_735_1       3           1
                                                 wwht160             y             1          1000             0             0             1          1000
                                                    radi             n             0             0             0             0             0             0
                                                 corn120             n             0             0             0             0             0             0
field_104_comm_766_1       2           1
                                                 wwht160             y             1          1000             0             0             1          1000
                                                 corn120             n             0             0             0             0             0             0
field_111_comm_115_1       4           1
                                                 wbar120             y             1          1000             0             0             1          1000
                                                    radi             n             0             0             0             0             0             0
                                                 sunf100             n             0             0             0             0             0             0
                                                 corn120             n             0             0             0             0             0             0
field_112_comm_914_1       4           1
                                                 wwht160             y             1          1000             0             0             1          1000
                                                    radi             n             0             0             0             0             0             0
                                                 corn120             n             0             0             0             0             0             0
                                                 sunf100             n             0             0             0             0             0             0
field_113_comm_921_1       3           1
                                                 wwht160             y             1          1000             0             0             1          1000
                                                 corn120             n             0             0             0             0             0             0
                                                 sunf100             n             0             0             0             0             0             0
field_116_comm_926_1       4           1
                                                 wwht160             y             1          1000             0             0             1          1000
                                                 corn120             n             0             0             0             0             0             0
                                                 wbar120             n             0             0             0             0             0             0
                                                 sunf100             n             0             0             0             0             0             0
field_117_comm_927_1       5           1
                                                 wwht160             y             1          1000             0             0             1          1000
                                                 wbar120             n             0             0             0             0             0             0
                                                    radi             n             0             0             0             0             0             0
                                                 sunf100             n             0             0             0             0             0             0
                                                 corn120             n             0             0             0             0             0             0
field_11_comm_480_1       5           1
                                                 wwht160             y             1          1000             0             0             1          1000
                                                 corn120             n             0             0             0             0             0             0
                                                 wbar120             n             0             0             0             0             0             0
                                                    radi             n             0             0             0             0             0             0
                                                 sunf100             n             0             0             0             0             0             0
field_121_comm_938_1       3           1
                                                 wwht160             y             1          1000             0             0             1          1000
                                                 corn120             n             0             0             0             0             0             0
                                                 sunf100             n             0             0             0             0             0             0
field_124_comm_941_1       3           1
                                                 wbar120             y             1          1000             0             0             1          1000
                                                 sunf100             n             0             0             0             0             0             0
                                                 corn120             n             0             0             0             0             0             0
field_125_comm_942_1       5           1
                                                 wwht160             y             1          1000             0             0             1          1000
                                                 corn120             n             0             0             0             0             0             0
                                                 wbar120             n             0             0             0             0             0             0
                                                    radi             n             0             0             0             0             0             0
                                                 sunf100             n             0             0             0             0             0             0
field_126_comm_943_1       4           1
                                                 wwht160             y             1          1000             0             0             1          1000
                                                 corn120             n             0             0             0             0             0             0
                                                 wbar120             n             0             0             0             0             0             0
                                                 sunf100             n             0             0             0             0             0             0
field_127_comm_967_1       3           1
                                                 wwht160             y             1          1000             0             0             1          1000
                                                    radi             n             0             0             0             0             0             0
                                                 corn120             n             0             0             0             0             0             0
field_128_comm_975_1       2           1
                                                 wwht160             y             1          1000             0             0             1          1000
                                                 corn120             n             0             0             0             0             0             0
field_129_comm_979_1       4           1
                                                 canp140             y             1          1000             0             0             1          1000
                                                    radi             n             0             0             0             0             0             0
                                                 corn120             n             0             0             0             0             0             0
                                                 wwht160             n             0             0             0             0             0             0
field_12_comm_489_1       5           1
                                                 wbar120             y             1          1000             0             0             1          1000
                                                 sunf100             n             0             0             0             0             0             0
                                                 wwht160             n             0             0             0             0             0             0
                                                    radi             n             0             0             0             0             0             0
                                                 corn120             n             0             0             0             0             0             0
field_131_comm_985_1       3           1
                                                 wwht160             y             1          1000             0             0             1          1000
                                                 corn120             n             0             0             0             0             0             0
                                                    alfa             n             0             0             0             0             0             0
field_135_comm_1016_1       3           1
                                                 canp140             y             1          1000             0             0             1          1000
                                                 wwht160             n             0             0             0             0             0             0
                                                 corn120             n             0             0             0             0             0             0
field_138_comm_1032_1       4           1
                                                 wbar120             y             1          1000             0             0             1          1000
                                                    radi             n             0             0             0             0             0             0
                                                 sunf100             n             0             0             0             0             0             0
                                                 corn120             n             0             0             0             0             0             0
field_140_comm_1045_1       4           1
                                                 wwht160             y             1          1000             0             0             1          1000
                                                    radi             n             0             0             0             0             0             0
                                                 sunf100             n             0             0             0             0             0             0
                                                 wbar120             n             0             0             0             0             0             0
field_143_comm_121_1       2           1
                                                 wwht160             y             1          1000             0             0             1          1000
                                                 corn120             n             0             0             0             0             0             0
field_144_comm_1050_1       4           1
                                                 wbar120             y             1          1000             0             0             1          1000
                                                 corn120             n             0             0             0             0             0             0
                                                 wwht160             n             0             0             0             0             0             0
                                                 canp140             n             0             0             0             0             0             0
field_145_comm_1051_1       3           1
                                                 wwht160             y             1          1000             0             0             1          1000
                                                 canp140             n             0             0             0             0             0             0
                                                 wbar120             n             0             0             0             0             0             0
field_146_comm_1052_1       3           1
                                                 wwht160             y             1          1000             0             0             1          1000
                                                 canp140             n             0             0             0             0             0             0
                                                 wbar120             n             0             0             0             0             0             0
field_149_comm_1058_1       3           1
                                                 canp140             y             1          1000             0             0             1          1000
                                                 wwht160             n             0             0             0             0             0             0
                                                 wbar120             n             0             0             0             0             0             0
field_14_comm_492_1       3           1
                                                 wwht160             y             1          1000             0             0             1          1000
                                                 corn120             n             0             0             0             0             0             0
                                                 sunf100             n             0             0             0             0             0             0
field_150_comm_1059_1       4           1
                                                 wwht160             y             1          1000             0             0             1          1000
                                                 canp140             n             0             0             0             0             0             0
                                                 corn120             n             0             0             0             0             0             0
                                                 sunf100             n             0             0             0             0             0             0
field_151_comm_125_1       5           1
                                                 wwht160             y             1          1000             0             0             1          1000
                                                    radi             n             0             0             0             0             0             0
                                                 corn120             n             0             0             0             0             0             0
                                                 sunf100             n             0             0             0             0             0             0
                                                 wbar120             n             0             0             0             0             0             0
field_152_comm_1060_1       5           1
                                                 wwht160             y             1          1000             0             0             1          1000
                                                    radi             n             0             0             0             0             0             0
                                                 sunf100             n             0             0             0             0             0             0
                                                 wbar120             n             0             0             0             0             0             0
                                                 canp140             n             0             0             0             0             0             0
field_153_comm_1061_1       2           1
                                                 wwht160             y             1          1000             0             0             1          1000
                                                 corn120             n             0             0             0             0             0             0
field_156_comm_1083_1       4           1
                                                 wwht160             y             1          1000             0             0             1          1000
                                                    radi             n             0             0             0             0             0             0
                                                 sunf100             n             0             0             0             0             0             0
                                                 wbar120             n             0             0             0             0             0             0
field_164_comm_133_1       5           1
                                                 wwht160             y             1          1000             0             0             1          1000
                                                 wbar120             n             0             0             0             0             0             0
                                                    radi             n             0             0             0             0             0             0
                                                 sunf100             n             0             0             0             0             0             0
                                                 corn120             n             0             0             0             0             0             0
field_165_comm_35_1       3           1
                                                 wwht160             y             1          1000             0             0             1          1000
                                                 corn120             n             0             0             0             0             0             0
                                                 sunf100             n             0             0             0             0             0             0
field_167_comm_143_1       4           1
                                                 wwht160             y             1          1000             0             0             1          1000
                                                 wbar120             n             0             0             0             0             0             0
                                                 sunf100             n             0             0             0             0             0             0
                                                    radi             n             0             0             0             0             0             0
field_168_comm_183_1       5           1
                                                 wbar120             y             1          1000             0             0             1          1000
                                                    radi             n             0             0             0             0             0             0
                                                 corn120             n             0             0             0             0             0             0
                                                 sunf100             n             0             0             0             0             0             0
                                                 wwht160             n             0             0             0             0             0             0
field_16_comm_500_1       4           1
                                                 wwht160             y             1          1000             0             0             1          1000
                                                 sunf100             n             0             0             0             0             0             0
                                                 wbar120             n             0             0             0             0             0             0
                                                 canp140             n             0             0             0             0             0             0
field_174_comm_220_1       5           1
                                                 wwht160             y             1          1000             0             0             1          1000
                                                 wbar120             n             0             0             0             0             0             0
                                                    radi             n             0             0             0             0             0             0
                                                 sunf100             n             0             0             0             0             0             0
                                                 corn120             n             0             0             0             0             0             0
field_176_comm_36_1       4           1
                                                 wwht160             y             1          1000             0             0             1          1000
                                                    radi             n             0             0             0             0             0             0
                                                 corn120             n             0             0             0             0             0             0
                                                 sunf100             n             0             0             0             0             0             0
field_177_comm_228_1       5           1
                                                 wbar120             y             1          1000             0             0             1          1000
                                                    radi             n             0             0             0             0             0             0
                                                 corn120             n             0             0             0             0             0             0
                                                 wwht160             n             0             0             0             0             0             0
                                                 canp140             n             0             0             0             0             0             0
field_178_comm_233_1       5           1
                                                 wwht160             y             1          1000             0             0             1          1000
                                                 wbar120             n             0             0             0             0             0             0
                                                    radi             n             0             0             0             0             0             0
                                                 sunf100             n             0             0             0             0             0             0
                                                 corn120             n             0             0             0             0             0             0
field_179_comm_235_1       3           1
                                                 wwht160             y             1          1000             0             0             1          1000
                                                 canp140             n             0             0             0             0             0             0
                                                 corn120             n             0             0             0             0             0             0
field_181_comm_238_1       3           1
                                                 wwht160             y             1          1000             0             0             1          1000
                                                    radi             n             0             0             0             0             0             0
                                                 sunf100             n             0             0             0             0             0             0
field_182_comm_241_1       3           1
                                                 wwht160             y             1          1000             0             0             1          1000
                                                 sunf100             n             0             0             0             0             0             0
                                                 wbar120             n             0             0             0             0             0             0
field_183_comm_242_1       5           1
                                                 wwht160             y             1          1000             0             0             1          1000
                                                 canp140             n             0             0             0             0             0             0
                                                    radi             n             0             0             0             0             0             0
                                                 corn120             n             0             0             0             0             0             0
                                                 sunf100             n             0             0             0             0             0             0
field_185_comm_255_1       6           1
                                                 canp140             y             1          1000             0             0             1          1000
                                                    alfa             n             0             0             0             0             0             0
                                                 wwht160             n             0             0             0             0             0             0
                                                    radi             n             0             0             0             0             0             0
                                                 sunf100             n             0             0             0             0             0             0
                                                 wbar120             n             0             0             0             0             0             0
field_186_comm_37_1       4           1
                                                 wwht160             y             1          1000             0             0             1          1000
                                                 corn120             n             0             0             0             0             0             0
                                                 sunf100             n             0             0             0             0             0             0
                                                 wbar120             n             0             0             0             0             0             0
field_187_comm_256_1       4           1
                                                 canp140             y             1          1000             0             0             1          1000
                                                 corn120             n             0             0             0             0             0             0
                                                 sunf100             n             0             0             0             0             0             0
                                                 wbar120             n             0             0             0             0             0             0