rout_unit.con: written by SWAT+ editor v2.2.0 on 2024-01-15 12:53 for SWAT+ rev.60.5.4
      id  name                gis_id          area           lat           lon          elev       rtu               wst       cst      ovfl      rule   out_tot       obj_typ    obj_id       hyd_typ          frac  
       1  rtu0001                  0       0.17182      46.70919      17.76162     145.11379         1         s467n178e         0         0         0         2            ru       431           tot       1.00000           aqu         1           rhg       1.00000  
       2  rtu0002                  0       0.21694      46.70824      17.76002     152.88861         2         s467n178e         0         0         0         2            ru       731           tot       1.00000           aqu         1           rhg       1.00000  
       3  rtu0003                  0       1.44922      46.70259      17.76686     139.52828         3         s467n178e         0         0         0         2            ru      1148           tot       1.00000           aqu         1           rhg       1.00000  
       4  rtu0004                  0       0.48225      46.70598      17.76511     139.62738         4         s467n178e         0         0         0         3            ru         5           tot       0.44318            ru       730           tot       0.55682           aqu         1           rhg       1.00000  
       5  rtu0005                  0       0.58485      46.70556      17.76529     139.31944         5         s467n178e         0         0         0         2            ru       730           tot       1.00000           aqu         1           rhg       1.00000  
       6  rtu0006                  0       0.05551      46.70551      17.76286     142.66782         6         s467n178e         0         0         0         2            ru        62           tot       1.00000           aqu         1           rhg       1.00000  
       7  rtu0007                  0       1.09197      46.70822      17.76464     137.90100         7         s467n178e         0         0         0         3            ru         9           tot       0.69565            ru       732           tot       0.30435           aqu         1           rhg       1.00000  
       8  rtu0008                  0       0.26372      46.70898      17.76588     137.45433         8         s467n178e         0         0         0         2            ru      1147           tot       1.00000           aqu         1           rhg       1.00000  
       9  rtu0009                  0       1.05947      46.70913      17.76400     136.57782         9         s467n178e         0         0         0         2            ru       732           tot       1.00000           aqu         1           rhg       1.00000  
      10  rtu0010                  0       0.14653      46.70538      17.76809     136.23984        10         s467n178e         0         0         0         2            ru       752           tot       1.00000           aqu         1           rhg       1.00000  
      11  rtu0011                  0       0.10926      46.70552      17.76752     137.35562        11         s467n178e         0         0         0         4            ru        10           tot       0.13043            ru        12           tot       0.43478            ru      1148           tot       0.43478           aqu         1           rhg       1.00000  
      12  rtu0012                  0       0.62707      46.70573      17.76916     134.83096        12         s467n178e         0         0         0         2            ru       665           tot       1.00000           aqu         1           rhg       1.00000  
      13  rtu0013                  0      20.35493      46.65766      17.73179     266.47323        13         s467n177e         0         0         0         3            ru       529           tot       0.51984            ru       541           tot       0.48016           aqu         1           rhg       1.00000  
      14  rtu0014                  0       1.79695      46.70772      17.76335     140.12004        14         s467n178e         0         0         0         4            ru         7           tot       0.56188            ru         9           tot       0.21336            ru        18           tot       0.22475           aqu         1           rhg       1.00000  
      15  rtu0015                  0      20.28150      46.61346      17.79547     180.60092        15         s466n178e         0         0         0         3            ru       999           tot       0.75611            ru      1001           tot       0.24389           aqu         1           rhg       1.00000  
      16  rtu0016                  0       2.37951      46.68263      17.76103     165.30384        16         s467n178e         0         0         0         2            ru       387           tot       1.00000           aqu         1           rhg       1.00000  
      17  rtu0017                  0       0.09655      46.70876      17.76189     144.49167        17         s467n178e         0         0         0         2            ru        20           tot       1.00000           aqu         1           rhg       1.00000  
      18  rtu0018                  0       0.69155      46.70741      17.76449     138.00453        18         s467n178e         0         0         0         2            ru         7           tot       1.00000           aqu         1           rhg       1.00000  
      19  rtu0019                  0       1.09199      46.70780      17.76241     143.43137        19         s467n178e         0         0         0         2            ru        14           tot       1.00000           aqu         1           rhg       1.00000  
      20  rtu0020                  0       0.52360      46.70880      17.76270     140.87538        20         s467n178e         0         0         0         2            ru         9           tot       1.00000           aqu         1           rhg       1.00000  
      21  rtu0021                  0       0.09160      46.72610      17.78793     157.56754        21         s467n178e         0         0         0         3            ru       748           tot       0.32836            ru      1095           tot       0.67164           aqu         1           rhg       1.00000  
      22  rtu0022                  0       1.30301      46.71291      17.76750     134.35706        22         s467n178e         0         0         0         2            ru       340           tot       1.00000           aqu         1           rhg       1.00000  
      23  rtu0023                  0       0.02494      46.72561      17.78830     155.49560        23         s467n178e         0         0         0         2            ru      1125           tot       1.00000           aqu         1           rhg       1.00000  
      24  rtu0024                  0       0.10679      46.72523      17.78744     153.99180        24         s467n178e         0         0         0         2            ru      1125           tot       1.00000           aqu         1           rhg       1.00000  
      25  rtu0025                  0       1.66371      46.70373      17.76213     152.74429        25         s467n178e         0         0         0         3            ru       429           tot       0.41317            ru      1149           tot       0.58683           aqu         1           rhg       1.00000  
      26  rtu0026                  0       0.29910      46.70227      17.76272     157.45237        26         s467n178e         0         0         0         2            ru       783           tot       1.00000           aqu         1           rhg       1.00000  
      27  rtu0027                  0       0.22739      46.70301      17.76193     158.65664        27         s467n178e         0         0         0         2            ru        25           tot       1.00000           aqu         1           rhg       1.00000  
      28  rtu0028                  0       0.29032      46.70264      17.76245     157.70682        28         s467n178e         0         0         0         3            ru        83           tot       0.65926            ru      1149           tot       0.34074           aqu         1           rhg       1.00000  
      29  rtu0029                  0       1.24522      46.71044      17.76709     135.87146        29         s467n178e         0         0         0         2            ru        30           tot       1.00000           aqu         1           rhg       1.00000  
      30  rtu0030                  0       0.65687      46.71087      17.76758     134.46161        30         s467n178e         0         0         0         3            ru       465           tot       0.40954            ru       470           tot       0.59046           aqu         1           rhg       1.00000  
      31  rtu0031                  0       0.25214      46.70292      17.76226     157.51049        31         s467n178e         0         0         0         4            ru        25           tot       0.20301            ru        27           tot       0.27068            ru      1149           tot       0.52632           aqu         1           rhg       1.00000  
      32  rtu0032                  0       0.48527      46.70768      17.75950     156.73243        32         s467n178e         0         0         0         4            ru        69           tot       0.32443            ru        71           tot       0.18321            ru       171           tot       0.49237           aqu         1           rhg       1.00000  
      33  rtu0033                  0       1.54661      46.66447      17.78316     147.38434        33         s467n178e         0         0         0         2            ru       765           tot       1.00000           aqu         1           rhg       1.00000  
      34  rtu0034                  0       0.14960      46.66758      17.78332     149.16767        34         s467n178e         0         0         0         2            ru       204           tot       1.00000           aqu         1           rhg       1.00000  
      35  rtu0035                  0       2.63864      46.67215      17.78314     147.21324        35         s467n178e         0         0         0         2            ru       237           tot       1.00000           aqu         1           rhg       1.00000  
      36  rtu0036                  0       1.03385      46.67704      17.78138     145.44632        36         s467n178e         0         0         0         3            ru        42           tot       0.58427            ru       377           tot       0.41573           aqu         1           rhg       1.00000  
      37  rtu0037                  0       1.81329      46.67561      17.78190     146.73475        37         s467n178e         0         0         0         2            ru       377           tot       1.00000           aqu         1           rhg       1.00000  
      38  rtu0038                  0       0.04031      46.66693      17.78272     145.95018        38         s467n178e         0         0         0         2            ru       812           tot       1.00000           aqu         1           rhg       1.00000  
      39  rtu0039                  0       5.29119      46.67962      17.78042     145.11989        39         s467n178e         0         0         0         2            ru       377           tot       1.00000           aqu         1           rhg       1.00000  
      40  rtu0040                  0       1.14310      46.67644      17.78160     146.19873        40         s467n178e         0         0         0         3            ru        36           tot       0.54817            ru       377           tot       0.45183           aqu         1           rhg       1.00000  
      41  rtu0041                  0       4.70243      46.66625      17.78491     148.23061        41         s467n178e         0         0         0         2            ru      1134           tot       1.00000           aqu         1           rhg       1.00000  
      42  rtu0042                  0       1.53300      46.67775      17.78115     145.05525        42         s467n178e         0         0         0         3            ru        39           tot       0.62010            ru       377           tot       0.37990           aqu         1           rhg       1.00000  
      43  rtu0043                  0       3.49251      46.67676      17.78265     149.74896        43         s467n178e         0         0         0         5            ru        35           tot       0.11755            ru        39           tot       0.29770            ru        44           tot       0.19963            ru        45           tot       0.38513           aqu         1           rhg       1.00000  
      44  rtu0044                  0       5.17682      46.66964      17.78396     147.66068        44         s467n178e         0         0         0         2            ru       204           tot       1.00000           aqu         1           rhg       1.00000  
      45  rtu0045                  0       3.47257      46.67404      17.78251     147.01659        45         s467n178e         0         0         0         2            ru       237           tot       1.00000           aqu         1           rhg       1.00000  
      46  rtu0046                  0       1.00758      46.70899      17.76681     136.39486        46         s467n178e         0         0         0         2            ru      1120           tot       1.00000           aqu         1           rhg       1.00000  
      47  rtu0047                  0       0.87334      46.70822      17.75886     161.24605        47         s467n178e         0         0         0         5            ru         2           tot       0.20690            ru        32           tot       0.18391            ru        69           tot       0.31609            ru       173           tot       0.29310           aqu         1           rhg       1.00000  
      48  rtu0048                  0       0.84881      46.70949      17.77202     131.55590        48         s467n178e         0         0         0         2            ru       665           tot       1.00000           aqu         1           rhg       1.00000  
      49  rtu0049                  0       0.29656      46.70998      17.75939     154.62815        49         s467n178e         0         0         0         2            ru       731           tot       1.00000           aqu         1           rhg       1.00000  
      50  rtu0050                  0       0.91330      46.71458      17.76740     133.45573        50         s467n178e         0         0         0         2            ru      1155           tot       1.00000           aqu         1           rhg       1.00000  
      51  rtu0051                  0       0.46677      46.71271      17.76712     134.67354        51         s467n178e         0         0         0         2            ru        22           tot       1.00000           aqu         1           rhg       1.00000  
      52  rtu0052                  0       1.05409      46.71985      17.76461     137.48265        52         s467n178e         0         0         0         2            ru       813           tot       1.00000           aqu         1           rhg       1.00000  
      53  rtu0053                  0       0.50523      46.71811      17.76485     137.23013        53         s467n178e         0         0         0         3            ru       507           tot       0.70000            ru       814           tot       0.30000           aqu         1           rhg       1.00000  
      54  rtu0054                  0       4.04506      46.71293      17.73964     283.00266        54         s467n177e         0         0         0         2            ru       795           tot       1.00000           aqu         1           rhg       1.00000  
      55  rtu0055                  0       0.14809      46.70918      17.76805     134.99644        55         s467n178e         0         0         0         3            ru       665           tot       0.48611            ru      1120           tot       0.51389           aqu         1           rhg       1.00000  
      56  rtu0056                  0       0.82645      46.72287      17.76291     141.36051        56         s467n178e         0         0         0         1           aqu         1           rhg       1.00000  
      57  rtu0057                  0       4.16641      46.71337      17.73452     278.07306        57         s467n177e         0         0         0         2            ru       795           tot       1.00000           aqu         1           rhg       1.00000  
      58  rtu0058                  0       0.88239      46.70635      17.75591     180.40119        58         s467n178e         0         0         0         3            ru        68           tot       0.57002            ru       478           tot       0.42998           aqu         1           rhg       1.00000  
      59  rtu0059                  0       0.26285      46.70727      17.75783     157.30962        59         s467n178e         0         0         0         2            ru        69           tot       1.00000           aqu         1           rhg       1.00000  
      60  rtu0060                  0       0.17757      46.70346      17.76618     141.15201        60         s467n178e         0         0         0         2            ru       788           tot       1.00000           aqu         1           rhg       1.00000  
      61  rtu0061                  0       0.24218      46.70433      17.76443     141.82246        61         s467n178e         0         0         0         3            ru        81           tot       0.28205            ru       777           tot       0.71795           aqu         1           rhg       1.00000  
      62  rtu0062                  0       0.42895      46.70559      17.76386     141.89276        62         s467n178e         0         0         0         4            ru         4           tot       0.41975            ru         5           tot       0.38272            ru       730           tot       0.19753           aqu         1           rhg       1.00000  
      63  rtu0063                  0       0.53334      46.70500      17.76401     141.87645        63         s467n178e         0         0         0         3            ru        82           tot       0.68811            ru       794           tot       0.31189           aqu         1           rhg       1.00000  
      64  rtu0064                  0       0.27522      46.70953      17.75963     154.62139        64         s467n178e         0         0         0         2            ru        65           tot       1.00000           aqu         1           rhg       1.00000  
      65  rtu0065                  0       0.15662      46.70929      17.75974     154.53567        65         s467n178e         0         0         0         2            ru       731           tot       1.00000           aqu         1           rhg       1.00000  
      66  rtu0066                  0       3.07454      46.71154      17.75843     154.18586        66         s467n178e         0         0         0         3            ru       106           tot       0.48901            ru       731           tot       0.51099           aqu         1           rhg       1.00000  
      67  rtu0067                  0       0.10614      46.70975      17.75951     154.70961        67         s467n178e         0         0         0         2            ru       731           tot       1.00000           aqu         1           rhg       1.00000  
      68  rtu0068                  0       1.43700      46.70670      17.75738     167.92111        68         s467n178e         0         0         0         2            ru        69           tot       1.00000           aqu         1           rhg       1.00000  
      69  rtu0069                  0       3.80616      46.70752      17.75767     158.30898        69         s467n178e         0         0         0         2            ru       734           tot       1.00000           aqu         1           rhg       1.00000  
      70  rtu0070                  0       0.04301      46.70917      17.75981     154.30176        70         s467n178e         0         0         0         2            ru       776           tot       1.00000           aqu         1           rhg       1.00000  
      71  rtu0071                  0       0.32436      46.70740      17.76036     150.25195        71         s467n178e         0         0         0         2            ru       734           tot       1.00000           aqu         1           rhg       1.00000  
      72  rtu0072                  0       0.04214      46.71109      17.76155     141.90144        72         s467n178e         0         0         0         2            ru        73           tot       1.00000           aqu         1           rhg       1.00000  
      73  rtu0073                  0       0.14933      46.71123      17.76230     140.14890        73         s467n178e         0         0         0         2            ru        74           tot       1.00000           aqu         1           rhg       1.00000  
      74  rtu0074                  0       6.39843      46.71181      17.76204     139.97572        74         s467n178e         0         0         0         2            ru        79           tot       1.00000           aqu         1           rhg       1.00000  
      75  rtu0075                  0       0.07192      46.71121      17.76147     141.75286        75         s467n178e         0         0         0         3            ru        76           tot       0.63584            ru       781           tot       0.36416           aqu         1           rhg       1.00000  
      76  rtu0076                  0       0.05430      46.71145      17.76167     141.31190        76         s467n178e         0         0         0         2            ru       781           tot       1.00000           aqu         1           rhg       1.00000  
      77  rtu0077                  0       0.52339      46.71909      17.77331     128.60136        77         s467n178e         0         0         0         2            ru       786           tot       1.00000           aqu         1           rhg       1.00000  
      78  rtu0078                  0       0.55913      46.71180      17.76212     140.45840        78         s467n178e         0         0         0         2            ru        74           tot       1.00000           aqu         1           rhg       1.00000  
      79  rtu0079                  0       1.26997      46.71087      17.76377     136.38230        79         s467n178e         0         0         0         2            ru       571           tot       1.00000           aqu         1           rhg       1.00000  
      80  rtu0080                  0       0.52169      46.70461      17.76414     142.12557        80         s467n178e         0         0         0         2            ru        63           tot       1.00000           aqu         1           rhg       1.00000  
      81  rtu0081                  0       1.23542      46.70415      17.76512     142.13012        81         s467n178e         0         0         0         2            ru       791           tot       1.00000           aqu         1           rhg       1.00000  
      82  rtu0082                  0       0.20068      46.70532      17.76391     141.80990        82         s467n178e         0         0         0         2            ru        62           tot       1.00000           aqu         1           rhg       1.00000  
      83  rtu0083                  0       2.87766      46.70274      17.76458     145.74891        83         s467n178e         0         0         0         5            ru         3           tot       0.18539            ru        81           tot       0.43056            ru       505           tot       0.19022            ru       789           tot       0.19384           aqu         1           rhg       1.00000  
      84  rtu0084                  0       1.83138      46.70434      17.75964     154.26809        84         s467n178e         0         0         0         2            ru       429           tot       1.00000           aqu         1           rhg       1.00000  
      85  rtu0085                  0       4.40551      46.71694      17.75701     148.28134        85         s467n178e         0         0         0         2            ru       107           tot       1.00000           aqu         1           rhg       1.00000  
      86  rtu0086                  0       2.00801      46.71333      17.76587     135.67472        86         s467n178e         0         0         0         2            ru       958           tot       1.00000           aqu         1           rhg       1.00000  
      87  rtu0087                  0       1.10797      46.71058      17.76134     143.76705        87         s467n178e         0         0         0         3            ru        74           tot       0.40420            ru       428           tot       0.59580           aqu         1           rhg       1.00000  
      88  rtu0088                  0       0.19714      46.72289      17.72534     202.17102        88         s467n177e         0         0         0         2            ru       820           tot       1.00000           aqu         1           rhg       1.00000  
      89  rtu0089                  0       2.72718      46.72416      17.72540     211.85839        89         s467n177e         0         0         0         3            ru       509           tot       0.30458            ru       821           tot       0.69542           aqu         1           rhg       1.00000  
      90  rtu0090                  0       3.29967      46.73414      17.71373     241.52936        90         s467n177e         0         0         0         2            ru       509           tot       1.00000           aqu         1           rhg       1.00000  
      91  rtu0091                  0       0.79020      46.72778      17.73738     208.07127        91         s467n177e         0         0         0         2            ru       442           tot       1.00000           aqu         1           rhg       1.00000  
      92  rtu0092                  0       5.18909      46.72585      17.74429     185.00368        92         s467n177e         0         0         0         3            ru       119           tot       0.73235            ru       124           tot       0.26765           aqu         1           rhg       1.00000  
      93  rtu0093                  0       0.19138      46.72576      17.75808     148.33530        93         s467n178e         0         0         0         2            ru      1077           tot       1.00000           aqu         1           rhg       1.00000  
      94  rtu0094                  0       0.31887      46.72634      17.77980     128.78956        94         s467n178e         0         0         0         3            ru       150           tot       0.35520            ru      1039           tot       0.64480           aqu         1           rhg       1.00000  
      95  rtu0095                  0      57.63915      46.71011      17.72660     254.36769        95         s467n177e         0         0         0         2            ru       686           tot       1.00000           aqu         1           rhg       1.00000  
      96  rtu0096                  0       0.11473      46.60367      17.79918     179.23420        96         s466n178e         0         0         0         2            ru       154           tot       1.00000           aqu         1           rhg       1.00000  
      97  rtu0097                  0       0.49085      46.60047      17.79931     186.57759        97         s466n178e         0         0         0         3            ru       189           tot       0.68014            ru       190           tot       0.31986           aqu         1           rhg       1.00000  
      98  rtu0098                  0       0.33616      46.60009      17.79930     187.13880        98         s466n178e         0         0         0         3            ru        97           tot       0.24138            ru       191           tot       0.75862           aqu         1           rhg       1.00000  
      99  rtu0099                  0       0.58461      46.59915      17.80013     185.95869        99         s466n178e         0         0         0         2           sdc        23           tot       1.00000           aqu         1           rhg       1.00000  
     100  rtu0100                  0       0.99729      46.72388      17.74680     174.88579       100         s467n177e         0         0         0         2            ru       422           tot       1.00000           aqu         1           rhg       1.00000  
     101  rtu0101                  0       3.63935      46.72423      17.74818     174.27184       101         s467n177e         0         0         0         2            ru       351           tot       1.00000           aqu         1           rhg       1.00000  
     102  rtu0102                  0       5.73701      46.70054      17.76403     155.67452       102         s467n178e         0         0         0         3            ru       574           tot       0.41470            ru      1149           tot       0.58530           aqu         1           rhg       1.00000  