snow.sno: written by SWAT+ editor v2.2.0 on 2024-01-15 12:53 for SWAT+ rev.60.5.4
name                  fall_tmp      melt_tmp      melt_max      melt_min       tmp_lag      snow_h2o         cov50     snow_init  
snow001                1.00000       0.50000       4.50000       4.50000       1.00000       1.00000       0.50000       0.00000  
