soils.sol: written by SWAT+ editor v2.2.0 on 2024-01-15 12:53 for SWAT+ rev.60.5.4, edited manually on 2024-07-29 12:47:51.542757
name                            nly           hyd_grp        dp_tot    anion_excl      perc_crk texture                               dp            bd           awc        soil_k        carbon          clay          silt          sand          rock           alb        usle_k            ec         caco3            ph
1.0                               6                 C    2000.00000       0.50000       0.50000 S                                                                                                                                                                                                                             
                                                                                                                                50.00000       1.57593       0.14888       5.65724       0.91272      19.65966      38.50642      41.83392       9.36603       0.16163       0.29455       0.00000       5.28138       6.73989
                                                                                                                               150.00000       1.57427       0.14660      12.49733       0.86865      18.18374      37.36077      44.45549      11.83495       0.15796       0.29154       0.00000       5.99396       6.79129
                                                                                                                               300.00000       1.58434       0.14232      26.68386       0.77488      18.22366      32.02258      49.75376       9.83672       0.15711       0.27363       0.00000       6.95027       6.95172
                                                                                                                               600.00000       1.62759       0.14078      59.49985       0.54240      19.11225      28.55050      52.33725       9.76173       0.15690       0.26573       0.00000      11.01970       7.33069
                                                                                                                              1000.00000       1.67409       0.12782      13.49181       0.34583      19.31381      30.41189      48.64212      10.20079       0.15981       0.27960       0.00000      11.99611       7.66688
                                                                                                                              2000.00000       1.66846       0.13627       1.06431       0.34162      17.72309      31.68649      48.99971      11.44315       0.16235       0.28469       0.00000      14.03299       7.94654
2.0                               6                 C    2000.00000       0.50000       0.50000 S                                                                                                                                                                                                                             
                                                                                                                                50.00000       1.57491       0.14805       5.81448       0.91008      19.31432      38.81363      41.87205       9.36603       0.16183       0.29582       0.00000       5.97349       6.74197
                                                                                                                               150.00000       1.57830       0.14748      10.33853       0.84538      18.11015      38.06551      43.82434      11.83495       0.15876       0.29567       0.00000       6.44472       6.78943
                                                                                                                               300.00000       1.58710       0.13904      23.20196       0.76158      18.22818      32.52476      49.24708       9.83672       0.15699       0.27625       0.00000       7.56335       6.94382
                                                                                                                               600.00000       1.63002       0.13920      52.21414       0.52743      18.96565      28.71246      52.32189       9.76173       0.15700       0.26667       0.00000      11.82788       7.31257
                                                                                                                              1000.00000       1.67635       0.12588      10.08981       0.33889      19.25008      31.25008      48.49984      10.20079       0.16025       0.28207       0.00000      14.04341       7.63611
                                                                                                                              2000.00000       1.66675       0.13684       1.04680       0.35190      18.00000      31.15289      49.00000      11.44315       0.16217       0.28286       0.00000      15.22526       7.91665
3.0                               6                 B    2000.00000       0.50000       0.50000 S                                                                                                                                                                                                                             
                                                                                                                                50.00000       1.54209       0.15125       8.21615       0.88080      14.80157      24.00186      61.19656      11.10493       0.15983       0.23589       0.00000       4.24814       7.27590
                                                                                                                               150.00000       1.55524       0.16706      12.29870       0.80728      15.43108      22.23896      62.32996      12.38472       0.16209       0.23143       0.00000       4.81858       7.31538
                                                                                                                               300.00000       1.56378       0.15544       3.46170       0.72879      14.39322      22.80349      62.80330      10.24998       0.16281       0.23640       0.00000       5.58824       7.41009
                                                                                                                               600.00000       1.60507       0.14988       8.42618       0.51430      15.33784      19.22300      65.43916      10.50323       0.16034       0.22475       0.00000      10.84139       7.73887
                                                                                                                              1000.00000       1.64864       0.14233      19.02508       0.31834      14.30871      22.97357      60.95565      10.43454       0.16085       0.24755       0.00000      17.44131       7.98829
                                                                                                                              2000.00000       1.67252       0.13380       1.01711       0.23401      14.29067      23.29280      60.73518      11.10231       0.16596       0.24931       0.00000      19.03127       8.25627
4.0                               6                 C    2000.00000       0.50000       0.50000 S                                                                                                                                                                                                                             
                                                                                                                                50.00000       1.58320       0.14469       2.28338       0.93426      21.45950      40.07075      38.46975       3.47733       0.16318       0.30087       0.00000       5.49835       6.86777
                                                                                                                               150.00000       1.58263       0.13370       3.55760       0.87671      19.59453      39.93959      40.46587       3.72480       0.15887       0.30263       0.00000       5.61223       6.91374
                                                                                                                               300.00000       1.58817       0.12833       4.73108       0.80486      19.58313      34.00887      46.40801       3.12615       0.15748       0.28114       0.00000       6.68363       7.06815
                                                                                                                               600.00000       1.61989       0.13833      57.29224       0.59300      19.34674      29.55500      51.09826       3.10924       0.15680       0.26904       0.00000      12.18310       7.42925
                                                                                                                              1000.00000       1.67363       0.13040      11.30523       0.37093      20.14055      31.98289      46.65085       3.16149       0.15967       0.28573       0.00000      12.53148       7.73351
                                                                                                                              2000.00000       1.66628       0.13693       1.09732       0.35124      18.06156      30.20883      49.85966       3.42518       0.16222       0.27882       0.00000      14.30299       8.01811
5.0                               6                 C    2000.00000       0.50000       0.50000 S                                                                                                                                                                                                                             
                                                                                                                                50.00000       1.58251       0.14313       2.49552       0.92328      20.99959      40.00468      38.99574       4.31248       0.16262       0.30099       0.00000       5.29789       6.87300
                                                                                                                               150.00000       1.58212       0.13749       6.36081       0.86618      19.16558      39.91404      40.92039       4.39370       0.15907       0.30287       0.00000       5.61047       6.91824
                                                                                                                               300.00000       1.58666       0.12557       2.96826       0.80193      19.14946      34.19053      46.66001       3.71983       0.15747       0.28187       0.00000       6.66559       7.07096
                                                                                                                               600.00000       1.62132       0.13720      55.71039       0.58751      19.41402      29.60146      50.98452       3.68902       0.15672       0.26938       0.00000      12.11949       7.43210
                                                                                                                              1000.00000       1.67413       0.12719      10.09169       0.36734      20.01450      32.25012      46.54623       3.70410       0.15981       0.28683       0.00000      12.79328       7.73766
                                                                                                                              2000.00000       1.66587       0.13782       1.30257       0.36312      18.47119      30.67459      49.09360       3.94765       0.16276       0.28062       0.00000      14.40738       8.02358
6.0                               6                 C    2000.00000       0.50000       0.50000 S                                                                                                                                                                                                                             
                                                                                                                                50.00000       1.57765       0.14410       2.19547       0.93580      20.37752      40.16629      39.45619       7.53600       0.16305       0.30051       0.00000       6.25507       6.77112
                                                                                                                               150.00000       1.58389       0.14274       7.95830       0.84154      18.79620      39.60730      41.59650       8.86831       0.15922       0.30269       0.00000       6.83045       6.81576
                                                                                                                               300.00000       1.59204       0.12468       4.75667       0.76160      18.90046      34.11512      46.98441       7.54963       0.15727       0.28315       0.00000       6.78520       6.96679
                                                                                                                               600.00000       1.62980       0.13750      72.69416       0.53594      19.14886      29.29070      51.56044       7.51737       0.15654       0.26903       0.00000      10.84272       7.33540
                                                                                                                              1000.00000       1.68069       0.12786      10.41384       0.34926      20.29662      32.95370      45.52251       7.62360       0.16039       0.29031       0.00000      13.87558       7.66402
                                                                                                                              2000.00000       1.66408       0.13744       0.96998       0.39193      19.18086      32.22717      47.24905       8.28526       0.16537       0.28648       0.00000      14.55421       7.95349
7.0                               6                 C    2000.00000       0.50000       0.50000 S                                                                                                                                                                                                                             
                                                                                                                                50.00000       1.57731       0.15476       7.20232       0.90828      19.95021      37.75063      42.29916       4.71167       0.16184       0.29179       0.00000       4.79727       6.78955
                                                                                                                               150.00000       1.57784       0.14777       7.91832       0.86807      18.81150      37.70258      43.48590       5.48277       0.15883       0.29328       0.00000       5.40061       6.83689
                                                                                                                               300.00000       1.58584       0.13793      18.39816       0.77880      18.54779      32.55912      48.89309       4.49724       0.15714       0.27580       0.00000       6.22422       6.98344
                                                                                                                               600.00000       1.62082       0.13809      87.63308       0.55897      18.56215      27.81395      53.62391       4.57390       0.15618       0.26218       0.00000      11.44615       7.34773
                                                                                                                              1000.00000       1.67500       0.12505      12.99421       0.35204      19.80871      30.39571      48.68216       4.72648       0.15960       0.27860       0.00000      14.60770       7.68176
                                                                                                                              2000.00000       1.67009       0.13392       0.94953       0.35185      18.93735      29.79858      49.95501       5.30425       0.16312       0.27614       0.00000      14.74868       7.97340
8.0                               6                 C    2000.00000       0.50000       0.50000 S                                                                                                                                                                                                                             
                                                                                                                                50.00000       1.56382       0.15581       8.32325       0.94361      18.70971      35.86284      45.42745       1.66940       0.16146       0.28131       0.00000       4.31466       6.71510
                                                                                                                               150.00000       1.56366       0.14804      12.03324       0.91435      17.66791      36.44637      45.88572       1.74611       0.15836       0.28502       0.00000       4.96436       6.76112
                                                                                                                               300.00000       1.57314       0.15492      41.79546       0.80818      17.20961      31.39543      51.39495       1.31654       0.15741       0.26943       0.00000       5.84398       6.89279
                                                                                                                               600.00000       1.62058       0.13804      85.82657       0.55893      18.56228      27.56575      53.87197       1.34493       0.15620       0.26113       0.00000      12.53101       7.27065
                                                                                                                              1000.00000       1.66697       0.13553      55.16285       0.33376      17.82158      27.71346      52.87724       1.45721       0.15860       0.26760       0.00000      18.30075       7.63732
                                                                                                                              2000.00000       1.67719       0.12842       1.28096       0.28681      17.58535      26.71659      54.03753       1.76141       0.16496       0.26376       0.00000      16.31413       7.94760
9.0                               6                 C    2000.00000       0.50000       0.50000 S                                                                                                                                                                                                                             
                                                                                                                                50.00000       1.58314       0.14514       3.91029       0.90171      20.83007      38.16590      41.00403       6.03702       0.16154       0.29439       0.00000       4.62420       6.82473
                                                                                                                               150.00000       1.58168       0.15048       9.16157       0.87194      19.67203      37.84602      42.48195       6.93469       0.15915       0.29409       0.00000       5.28336       6.87320
                                                                                                                               300.00000       1.58855       0.13774      16.20704       0.78846      19.40581      32.57464      48.01955       5.66035       0.15735       0.27574       0.00000       6.19569       7.02540
                                                                                                                               600.00000       1.61787       0.13938      91.35972       0.57323      18.52024      27.86096      53.61880       5.75207       0.15624       0.26210       0.00000      11.18637       7.38533
                                                                                                                              1000.00000       1.67677       0.12583      17.73376       0.36407      20.71309      30.59830      47.47327       5.92735       0.15917       0.27987       0.00000      13.49995       7.70223
                                                                                                                              2000.00000       1.67188       0.13632       0.97090       0.35354      19.26197      30.38412      48.85734       6.71315       0.16389       0.27913       0.00000      14.40481       7.98060
10.0                              6                 C    2000.00000       0.50000       0.50000 S                                                                                                                                                                                                                             
                                                                                                                                50.00000       1.56965       0.15125       6.57518       0.92498      18.69225      38.94950      42.35824       6.26259       0.16202       0.29518       0.00000       4.19148       6.75324
                                                                                                                               150.00000       1.57192       0.14484      10.87264       0.87697      17.41088      40.18982      42.39930       6.34584       0.15909       0.30254       0.00000       4.45079       6.79777
                                                                                                                               300.00000       1.58171       0.13921      24.53184       0.77969      17.25799      35.02078      47.72123       4.85681       0.15694       0.28566       0.00000       4.92245       6.93274
                                                                                                                               600.00000       1.62612       0.12332      30.98323       0.57242      19.59406      30.58292      49.82301       4.94183       0.15654       0.27396       0.00000       9.77135       7.32516
                                                                                                                              1000.00000       1.65417       0.14308      45.41522       0.34635      15.70364      28.67939      54.01842       5.30117       0.15852       0.27146       0.00000      11.98246       7.70073
                                                                                                                              2000.00000       1.64452       0.14147       1.97290       0.37430      15.70364      25.87162      56.82619       6.33428       0.16237       0.25925       0.00000      13.59637       8.01276
11.0                              6                 C    2000.00000       0.50000       0.50000 S                                                                                                                                                                                                                             
                                                                                                                                50.00000       1.56731       0.15564       7.83109       0.91576      18.21014      37.60372      44.18614       3.64339       0.16226       0.28993       0.00000       4.14701       6.74922
                                                                                                                               150.00000       1.56644       0.14360      10.48127       0.86667      16.31527      38.56530      45.11943       3.59643       0.15902       0.29589       0.00000       4.42467       6.79384
                                                                                                                               300.00000       1.57535       0.15178      36.74465       0.77106      16.14417      32.79012      51.06570       2.94172       0.15795       0.27649       0.00000       5.06023       6.92885
                                                                                                                               600.00000       1.62167       0.13989      52.34514       0.56640      18.85748      28.64192      52.50060       2.93889       0.15673       0.26561       0.00000       9.99835       7.32026
                                                                                                                              1000.00000       1.65696       0.14145      62.84523       0.34751      16.22221      29.16675      53.31901       3.01065       0.15844       0.27298       0.00000      12.17360       7.69691
                                                                                                                              2000.00000       1.64595       0.14178       2.14808       0.37877      16.22221      25.78312      56.70263       3.32980       0.16219       0.25826       0.00000      13.70519       8.00994
12.0                              6                 C    2000.00000       0.50000       0.50000 S                                                                                                                                                                                                                             
                                                                                                                                50.00000       1.56237       0.15485       2.89513       1.42241      21.44526      41.40732      37.14742       6.80436       0.15943       0.27098       0.00000       5.65734       6.82343
                                                                                                                               150.00000       1.56619       0.13185       2.16653       1.31989      20.43972      42.47491      37.08537       6.91454       0.15734       0.28145       0.00000       5.87890       6.86753
                                                                                                                               300.00000       1.58509       0.14792      22.87585       1.17485      20.41801      37.27857      42.30342       5.25295       0.15736       0.27199       0.00000       6.96399       7.01144
                                                                                                                               600.00000       1.59573       0.13927      10.80016       0.78751      20.68802      33.18677      46.12521       5.35613       0.15728       0.27884       0.00000      12.00010       7.39664
                                                                                                                              1000.00000       1.65015       0.14052      40.00597       0.39509      16.99223      29.98420      51.16037       5.77496       0.15842       0.27719       0.00000      14.56042       7.72799
                                                                                                                              2000.00000       1.63577       0.14617       1.26670       0.41282      15.53618      26.99040      55.64520       6.95573       0.16383       0.26404       0.00000      13.56828       8.02887
13.0                              6                 C    2000.00000       0.50000       0.50000 S                                                                                                                                                                                                                             
                                                                                                                                50.00000       1.55842       0.15932      11.02904       0.89533      16.35912      34.81712      48.82376       9.09313       0.16107       0.27901       0.00000       4.65082       5.63840
                                                                                                                               150.00000       1.56743       0.15364      22.95166       0.83777      16.05488      36.25670      47.68842      10.68869       0.15761       0.28777       0.00000       4.88766       5.64154
                                                                                                                               300.00000       1.59862       0.13751      20.60319       0.63614      15.59389      35.14182      49.26428       9.55511       0.15752       0.29068       0.00000       4.48688       5.68633
                                                                                                                               600.00000       1.69597       0.13407      22.88855       0.33462      22.19354      35.07109      42.73537       9.35827       0.15986       0.29826       0.00000       7.62986       6.02983
                                                                                                                              1000.00000       1.66715       0.14387      40.62083       0.24161      12.45538      29.38724      56.53130       9.99486       0.16213       0.27520       0.00000      16.73940       6.50168
                                                                                                                              2000.00000       1.67024       0.13604       1.17308       0.20877      10.61007      31.51976      56.31352      11.60549       0.16721       0.28416       0.00000      21.76705       7.16874
14.0                              6                 C    2000.00000       0.50000       0.50000 S                                                                                                                                                                                                                             