soil_plant.ini: written by SWAT+ editor v2.2.0 on 2024-01-15 12:53 for SWAT+ rev.60.5.4, edited manually on 2024-07-29 12:49:40.741096
name                         sw_frac           nutrients              pest              path              hmet              salt
soilplant0001                     0          soilnut0001              null              null              null              null
soilplant0002                     0          soilnut0002              null              null              null              null
soilplant0003                     0          soilnut0003              null              null              null              null
soilplant0004                     0          soilnut0004              null              null              null              null
soilplant0005                     0          soilnut0005              null              null              null              null
soilplant0006                     0          soilnut0006              null              null              null              null
soilplant0007                     0          soilnut0007              null              null              null              null
soilplant0008                     0          soilnut0008              null              null              null              null
soilplant0009                     0          soilnut0009              null              null              null              null
soilplant0010                     0          soilnut0010              null              null              null              null
soilplant0011                     0          soilnut0011              null              null              null              null
soilplant0012                     0          soilnut0012              null              null              null              null
soilplant0013                     0          soilnut0013              null              null              null              null
soilplant0014                     0          soilnut0014              null              null              null              null
soilplant0015                     0          soilnut0015              null              null              null              null
soilplant0016                     0          soilnut0016              null              null              null              null
soilplant0017                     0          soilnut0017              null              null              null              null
soilplant0018                     0          soilnut0018              null              null              null              null
soilplant0019                     0          soilnut0019              null              null              null              null
soilplant0020                     0          soilnut0020              null              null              null              null
soilplant0021                     0          soilnut0021              null              null              null              null
soilplant0022                     0          soilnut0022              null              null              null              null
soilplant0023                     0          soilnut0023              null              null              null              null
soilplant0024                     0          soilnut0024              null              null              null              null
soilplant0025                     0          soilnut0025              null              null              null              null
soilplant0026                     0          soilnut0026              null              null              null              null
soilplant0027                     0          soilnut0027              null              null              null              null
soilplant0028                     0          soilnut0028              null              null              null              null
soilplant0029                     0          soilnut0029              null              null              null              null
soilplant0030                     0          soilnut0030              null              null              null              null
soilplant0031                     0          soilnut0031              null              null              null              null
soilplant0032                     0          soilnut0032              null              null              null              null
soilplant0033                     0          soilnut0033              null              null              null              null
soilplant0034                     0          soilnut0034              null              null              null              null
soilplant0035                     0          soilnut0035              null              null              null              null
soilplant0036                     0          soilnut0036              null              null              null              null
soilplant0037                     0          soilnut0037              null              null              null              null
soilplant0038                     0          soilnut0038              null              null              null              null
soilplant0039                     0          soilnut0039              null              null              null              null
soilplant0040                     0          soilnut0040              null              null              null              null
soilplant0041                     0          soilnut0041              null              null              null              null
soilplant0042                     0          soilnut0042              null              null              null              null
soilplant0043                     0          soilnut0043              null              null              null              null
soilplant0044                     0          soilnut0044              null              null              null              null
soilplant0045                     0          soilnut0045              null              null              null              null
soilplant0046                     0          soilnut0046              null              null              null              null
soilplant0047                     0          soilnut0047              null              null              null              null
soilplant0048                     0          soilnut0048              null              null              null              null
soilplant0049                     0          soilnut0049              null              null              null              null
soilplant0050                     0          soilnut0050              null              null              null              null
soilplant0051                     0          soilnut0051              null              null              null              null
soilplant0052                     0          soilnut0052              null              null              null              null
soilplant0053                     0          soilnut0053              null              null              null              null
soilplant0054                     0          soilnut0054              null              null              null              null
soilplant0055                     0          soilnut0055              null              null              null              null
soilplant0056                     0          soilnut0056              null              null              null              null
soilplant0057                     0          soilnut0057              null              null              null              null
soilplant0058                     0          soilnut0058              null              null              null              null
soilplant0059                     0          soilnut0059              null              null              null              null
soilplant0060                     0          soilnut0060              null              null              null              null
soilplant0061                     0          soilnut0061              null              null              null              null
soilplant0062                     0          soilnut0062              null              null              null              null
soilplant0063                     0          soilnut0063              null              null              null              null
soilplant0064                     0          soilnut0064              null              null              null              null
soilplant0065                     0          soilnut0065              null              null              null              null
soilplant0066                     0          soilnut0066              null              null              null              null
soilplant0067                     0          soilnut0067              null              null              null              null
soilplant0068                     0          soilnut0068              null              null              null              null
soilplant0069                     0          soilnut0069              null              null              null              null
soilplant0070                     0          soilnut0070              null              null              null              null
soilplant0071                     0          soilnut0071              null              null              null              null
soilplant0072                     0          soilnut0072              null              null              null              null
soilplant0073                     0          soilnut0073              null              null              null              null
soilplant0074                     0          soilnut0074              null              null              null              null
soilplant0075                     0          soilnut0075              null              null              null              null
soilplant0076                     0          soilnut0076              null              null              null              null
soilplant0077                     0          soilnut0077              null              null              null              null
soilplant0078                     0          soilnut0078              null              null              null              null
soilplant0079                     0          soilnut0079              null              null              null              null
soilplant0080                     0          soilnut0080              null              null              null              null
soilplant0081                     0          soilnut0081              null              null              null              null
soilplant0082                     0          soilnut0082              null              null              null              null
soilplant0083                     0          soilnut0083              null              null              null              null
soilplant0084                     0          soilnut0084              null              null              null              null
soilplant0085                     0          soilnut0085              null              null              null              null
soilplant0086                     0          soilnut0086              null              null              null              null
soilplant0087                     0          soilnut0087              null              null              null              null
soilplant0088                     0          soilnut0088              null              null              null              null
soilplant0089                     0          soilnut0089              null              null              null              null
soilplant0090                     0          soilnut0090              null              null              null              null
soilplant0091                     0          soilnut0091              null              null              null              null
soilplant0092                     0          soilnut0092              null              null              null              null
soilplant0093                     0          soilnut0093              null              null              null              null
soilplant0094                     0          soilnut0094              null              null              null              null
soilplant0095                     0          soilnut0095              null              null              null              null
soilplant0096                     0          soilnut0096              null              null              null              null
soilplant0097                     0          soilnut0097              null              null              null              null
soilplant0098                     0          soilnut0098              null              null              null              null
soilplant0099                     0          soilnut0099              null              null              null              null
soilplant0100                     0          soilnut0100              null              null              null              null
soilplant0101                     0          soilnut0101              null              null              null              null
soilplant0102                     0          soilnut0102              null              null              null              null
soilplant0103                     0          soilnut0103              null              null              null              null
soilplant0104                     0          soilnut0104              null              null              null              null
soilplant0105                     0          soilnut0105              null              null              null              null
soilplant0106                     0          soilnut0106              null              null              null              null
soilplant0107                     0          soilnut0107              null              null              null              null
soilplant0108                     0          soilnut0108              null              null              null              null
soilplant0109                     0          soilnut0109              null              null              null              null
soilplant0110                     0          soilnut0110              null              null              null              null
soilplant0111                     0          soilnut0111              null              null              null              null
soilplant0112                     0          soilnut0112              null              null              null              null
soilplant0113                     0          soilnut0113              null              null              null              null
soilplant0114                     0          soilnut0114              null              null              null              null
soilplant0115                     0          soilnut0115              null              null              null              null
soilplant0116                     0          soilnut0116              null              null              null              null
soilplant0117                     0          soilnut0117              null              null              null              null
soilplant0118                     0          soilnut0118              null              null              null              null
soilplant0119                     0          soilnut0119              null              null              null              null
soilplant0120                     0          soilnut0120              null              null              null              null
soilplant0121                     0          soilnut0121              null              null              null              null
soilplant0122                     0          soilnut0122              null              null              null              null
soilplant0123                     0          soilnut0123              null              null              null              null
soilplant0124                     0          soilnut0124              null              null              null              null
soilplant0125                     0          soilnut0125              null              null              null              null
soilplant0126                     0          soilnut0126              null              null              null              null
soilplant0127                     0          soilnut0127              null              null              null              null
soilplant0128                     0          soilnut0128              null              null              null              null
soilplant0129                     0          soilnut0129              null              null              null              null
soilplant0130                     0          soilnut0130              null              null              null              null
soilplant0131                     0          soilnut0131              null              null              null              null
soilplant0132                     0          soilnut0132              null              null              null              null
soilplant0133                     0          soilnut0133              null              null              null              null
soilplant0134                     0          soilnut0134              null              null              null              null
soilplant0135                     0          soilnut0135              null              null              null              null
soilplant0136                     0          soilnut0136              null              null              null              null
soilplant0137                     0          soilnut0137              null              null              null              null
soilplant0138                     0          soilnut0138              null              null              null              null
soilplant0139                     0          soilnut0139              null              null              null              null
soilplant0140                     0          soilnut0140              null              null              null              null
soilplant0141                     0          soilnut0141              null              null              null              null
soilplant0142                     0          soilnut0142              null              null              null              null
soilplant0143                     0          soilnut0143              null              null              null              null
soilplant0144                     0          soilnut0144              null              null              null              null
soilplant0145                     0          soilnut0145              null              null              null              null
soilplant0146                     0          soilnut0146              null              null              null              null
soilplant0147                     0          soilnut0147              null              null              null              null
soilplant0148                     0          soilnut0148              null              null              null              null
soilplant0149                     0          soilnut0149              null              null              null              null
soilplant0150                     0          soilnut0150              null              null              null              null
soilplant0151                     0          soilnut0151              null              null              null              null
soilplant0152                     0          soilnut0152              null              null              null              null
soilplant0153                     0          soilnut0153              null              null              null              null
soilplant0154                     0          soilnut0154              null              null              null              null
soilplant0155                     0          soilnut0155              null              null              null              null
soilplant0156                     0          soilnut0156              null              null              null              null
soilplant0157                     0          soilnut0157              null              null              null              null
soilplant0158                     0          soilnut0158              null              null              null              null
soilplant0159                     0          soilnut0159              null              null              null              null
soilplant0160                     0          soilnut0160              null              null              null              null
soilplant0161                     0          soilnut0161              null              null              null              null
soilplant0162                     0          soilnut0162              null              null              null              null
soilplant0163                     0          soilnut0163              null              null              null              null
soilplant0164                     0          soilnut0164              null              null              null              null
soilplant0165                     0          soilnut0165              null              null              null              null
soilplant0166                     0          soilnut0166              null              null              null              null
soilplant0167                     0          soilnut0167              null              null              null              null
soilplant0168                     0          soilnut0168              null              null              null              null
soilplant0169                     0          soilnut0169              null              null              null              null
soilplant0170                     0          soilnut0170              null              null              null              null
soilplant0171                     0          soilnut0171              null              null              null              null
soilplant0172                     0          soilnut0172              null              null              null              null
soilplant0173                     0          soilnut0173              null              null              null              null
soilplant0174                     0          soilnut0174              null              null              null              null
soilplant0175                     0          soilnut0175              null              null              null              null
soilplant0176                     0          soilnut0176              null              null              null              null
soilplant0177                     0          soilnut0177              null              null              null              null
soilplant0178                     0          soilnut0178              null              null              null              null
soilplant0179                     0          soilnut0179              null              null              null              null
soilplant0180                     0          soilnut0180              null              null              null              null
soilplant0181                     0          soilnut0181              null              null              null              null
soilplant0182                     0          soilnut0182              null              null              null              null
soilplant0183                     0          soilnut0183              null              null              null              null
soilplant0184                     0          soilnut0184              null              null              null              null
soilplant0185                     0          soilnut0185              null              null              null              null
soilplant0186                     0          soilnut0186              null              null              null              null
soilplant0187                     0          soilnut0187              null              null              null              null
soilplant0188                     0          soilnut0188              null              null              null              null
soilplant0189                     0          soilnut0189              null              null              null              null
soilplant0190                     0          soilnut0190              null              null              null              null
soilplant0191                     0          soilnut0191              null              null              null              null
soilplant0192                     0          soilnut0192              null              null              null              null
soilplant0193                     0          soilnut0193              null              null              null              null
soilplant0194                     0          soilnut0194              null              null              null              null
soilplant0195                     0          soilnut0195              null              null              null              null
soilplant0196                     0          soilnut0196              null              null              null              null
soilplant0197                     0          soilnut0197              null              null              null              null
soilplant0198                     0          soilnut0198              null              null              null              null
soilplant0199                     0          soilnut0199              null              null              null              null
soilplant0200                     0          soilnut0200              null              null              null              null
soilplant0201                     0          soilnut0201              null              null              null              null
soilplant0202                     0          soilnut0202              null              null              null              null
soilplant0203                     0          soilnut0203              null              null              null              null
soilplant0204                     0          soilnut0204              null              null              null              null
soilplant0205                     0          soilnut0205              null              null              null              null
soilplant0206                     0          soilnut0206              null              null              null              null
soilplant0207                     0          soilnut0207              null              null              null              null
soilplant0208                     0          soilnut0208              null              null              null              null
soilplant0209                     0          soilnut0209              null              null              null              null
soilplant0210                     0          soilnut0210              null              null              null              null
soilplant0211                     0          soilnut0211              null              null              null              null
soilplant0212                     0          soilnut0212              null              null              null              null
soilplant0213                     0          soilnut0213              null              null              null              null
soilplant0214                     0          soilnut0214              null              null              null              null
soilplant0215                     0          soilnut0215              null              null              null              null
soilplant0216                     0          soilnut0216              null              null              null              null
soilplant0217                     0          soilnut0217              null              null              null              null
soilplant0218                     0          soilnut0218              null              null              null              null
soilplant0219                     0          soilnut0219              null              null              null              null
soilplant0220                     0          soilnut0220              null              null              null              null
soilplant0221                     0          soilnut0221              null              null              null              null
soilplant0222                     0          soilnut0222              null              null              null              null
soilplant0223                     0          soilnut0223              null              null              null              null
soilplant0224                     0          soilnut0224              null              null              null              null
soilplant0225                     0          soilnut0225              null              null              null              null
soilplant0226                     0          soilnut0226              null              null              null              null
soilplant0227                     0          soilnut0227              null              null              null              null
soilplant0228                     0          soilnut0228              null              null              null              null
soilplant0229                     0          soilnut0229              null              null              null              null
soilplant0230                     0          soilnut0230              null              null              null              null