time.sim: written by SWAT+ editor v2.2.0 on 2024-01-15 12:53 for SWAT+ rev.60.5.4 and edited with SWATfarmR 2.0.5 on 2024-07-29 13:25:47.538232
day_start  yrc_start   day_end   yrc_end      step  
        0       1998         0      2020         0
