topography.hyd: written by SWAT+ editor v2.2.0 on 2024-01-15 12:53 for SWAT+ rev.60.5.4
name                       slp       slp_len       lat_len      dist_cha         depos  
topohru0001            0.06162      30.00000      30.00000     121.00000       0.00000  
topohru0002            0.07442      30.00000      30.00000     121.00000       0.00000  
topohru0003            0.03665      30.00000      30.00000     121.00000       0.00000  
topohru0004            0.02091      30.00000      30.00000     121.00000       0.00000  
topohru0005            0.01476      30.00000      30.00000     121.00000       0.00000  
topohru0006            0.05183      30.00000      30.00000     121.00000       0.00000  
topohru0007            0.04489      30.00000      30.00000     121.00000       0.00000  
topohru0008            0.02857      30.00000      30.00000     121.00000       0.00000  
topohru0009            0.05202      30.00000      30.00000     121.00000       0.00000  
topohru0010            0.03640      30.00000      30.00000     121.00000       0.00000  
topohru0011            0.02959      30.00000      30.00000     121.00000       0.00000  
topohru0012            0.01800      30.00000      30.00000     121.00000       0.00000  
topohru0013            0.03072      30.00000      30.00000     121.00000       0.00000  
topohru0014            0.05656      30.00000      30.00000     121.00000       0.00000  
topohru0015            0.05314      30.00000      30.00000     121.00000       0.00000  
topohru0016            0.08723      30.00000      30.00000     121.00000       0.00000  
topohru0017            0.04724      30.00000      30.00000     121.00000       0.00000  
topohru0018            0.03095      30.00000      30.00000     121.00000       0.00000  
topohru0019            0.04222      30.00000      30.00000     121.00000       0.00000  
topohru0020            0.06109      30.00000      30.00000     121.00000       0.00000  
topohru0021            0.05336      30.00000      30.00000     121.00000       0.00000  
topohru0022            0.02438      30.00000      30.00000     121.00000       0.00000  
topohru0023            0.05871      30.00000      30.00000     121.00000       0.00000  
topohru0024            0.04212      30.00000      30.00000     121.00000       0.00000  
topohru0025            0.10053      30.00000      30.00000     121.00000       0.00000  
topohru0026            0.08284      30.00000      30.00000     121.00000       0.00000  
topohru0027            0.10649      30.00000      30.00000     121.00000       0.00000  
topohru0028            0.09273      30.00000      30.00000     121.00000       0.00000  
topohru0029            0.03176      30.00000      30.00000     121.00000       0.00000  
topohru0030            0.03373      30.00000      30.00000     121.00000       0.00000  
topohru0031            0.09824      30.00000      30.00000     121.00000       0.00000  
topohru0032            0.19908      30.00000      30.00000     121.00000       0.00000  
topohru0033            0.07969      30.00000      30.00000     121.00000       0.00000  
topohru0034            0.34682      30.00000      30.00000     121.00000       0.00000  
topohru0035            0.03939      30.00000      30.00000     121.00000       0.00000  
topohru0036            0.03715      30.00000      30.00000     121.00000       0.00000  
topohru0037            0.04016      30.00000      30.00000     121.00000       0.00000  
topohru0038            0.05924      30.00000      30.00000     121.00000       0.00000  
topohru0039            0.02833      30.00000      30.00000     121.00000       0.00000  
topohru0040            0.03055      30.00000      30.00000     121.00000       0.00000  
topohru0041            0.03220      30.00000      30.00000     121.00000       0.00000  
topohru0042            0.02779      30.00000      30.00000     121.00000       0.00000  
topohru0043            0.07683      30.00000      30.00000     121.00000       0.00000  
topohru0044            0.03711      30.00000      30.00000     121.00000       0.00000  
topohru0045            0.03842      30.00000      30.00000     121.00000       0.00000  
topohru0046            0.02853      30.00000      30.00000     121.00000       0.00000  
topohru0047            0.13863      30.00000      30.00000     121.00000       0.00000  
topohru0048            0.02846      30.00000      30.00000     121.00000       0.00000  
topohru0049            0.06210      30.00000      30.00000     121.00000       0.00000  
topohru0050            0.05567      30.00000      30.00000     121.00000       0.00000  
topohru0051            0.01900      30.00000      30.00000     121.00000       0.00000  
topohru0052            0.02294      30.00000      30.00000     121.00000       0.00000  
topohru0053            0.03942      30.00000      30.00000     121.00000       0.00000  
topohru0054            0.08205      30.00000      30.00000     121.00000       0.00000  
topohru0055            0.02727      30.00000      30.00000     121.00000       0.00000  
topohru0056            0.04619      30.00000      30.00000     121.00000       0.00000  
topohru0057            0.05135      30.00000      30.00000     121.00000       0.00000  
topohru0058            0.11359      30.00000      30.00000     121.00000       0.00000  
topohru0059            0.21172      30.00000      30.00000     121.00000       0.00000  
topohru0060            0.02668      30.00000      30.00000     121.00000       0.00000  
topohru0061            0.02902      30.00000      30.00000     121.00000       0.00000  
topohru0062            0.04272      30.00000      30.00000     121.00000       0.00000  
topohru0063            0.03598      30.00000      30.00000     121.00000       0.00000  
topohru0064            0.05225      30.00000      30.00000     121.00000       0.00000  
topohru0065            0.05139      30.00000      30.00000     121.00000       0.00000  
topohru0066            0.10591      30.00000      30.00000     121.00000       0.00000  
topohru0067            0.06688      30.00000      30.00000     121.00000       0.00000  
topohru0068            0.15816      30.00000      30.00000     121.00000       0.00000  
topohru0069            0.21794      30.00000      30.00000     121.00000       0.00000  
topohru0070            0.05176      30.00000      30.00000     121.00000       0.00000  
topohru0071            0.19288      30.00000      30.00000     121.00000       0.00000  
topohru0072            0.03090      30.00000      30.00000     121.00000       0.00000  
topohru0073            0.03165      30.00000      30.00000     121.00000       0.00000  
topohru0074            0.03776      30.00000      30.00000     121.00000       0.00000  
topohru0075            0.02959      30.00000      30.00000     121.00000       0.00000  
topohru0076            0.02091      30.00000      30.00000     121.00000       0.00000  
topohru0077            0.02014      30.00000      30.00000     121.00000       0.00000  
topohru0078            0.02333      30.00000      30.00000     121.00000       0.00000  
topohru0079            0.05734      30.00000      30.00000     121.00000       0.00000  
topohru0080            0.03825      30.00000      30.00000     121.00000       0.00000  
topohru0081            0.03496      30.00000      30.00000     121.00000       0.00000  
topohru0082            0.04082      30.00000      30.00000     121.00000       0.00000  
topohru0083            0.07451      30.00000      30.00000     121.00000       0.00000  
topohru0084            0.09476      30.00000      30.00000     121.00000       0.00000  
topohru0085            0.03306      30.00000      30.00000     121.00000       0.00000  
topohru0086            0.02574      30.00000      30.00000     121.00000       0.00000  
topohru0087            0.05300      30.00000      30.00000     121.00000       0.00000  
topohru0088            0.03455      30.00000      30.00000     121.00000       0.00000  
topohru0089            0.12473      30.00000      30.00000     121.00000       0.00000  
topohru0090            0.07331      30.00000      30.00000     121.00000       0.00000  
topohru0091            0.03513      30.00000      30.00000     121.00000       0.00000  
topohru0092            0.05815      30.00000      30.00000     121.00000       0.00000  
topohru0093            0.02845      30.00000      30.00000     121.00000       0.00000  
topohru0094            0.04446      30.00000      30.00000     121.00000       0.00000  
topohru0095            0.15064      30.00000      30.00000     121.00000       0.00000  
topohru0096            0.03597      30.00000      30.00000     121.00000       0.00000  
topohru0097            0.03888      30.00000      30.00000     121.00000       0.00000  
topohru0098            0.04171      30.00000      30.00000     121.00000       0.00000  
topohru0099            0.06017      30.00000      30.00000     121.00000       0.00000  
topohru0100            0.02865      30.00000      30.00000     121.00000       0.00000  
topohru0101            0.02702      30.00000      30.00000     121.00000       0.00000  
topohru0102            0.10902      30.00000      30.00000     121.00000       0.00000  
topohru0103            0.04542      30.00000      30.00000     121.00000       0.00000  
topohru0104            0.08164      30.00000      30.00000     121.00000       0.00000  
topohru0105            0.19168      30.00000      30.00000     121.00000       0.00000  
topohru0106            0.13066      30.00000      30.00000     121.00000       0.00000  
topohru0107            0.04111      30.00000      30.00000     121.00000       0.00000  
topohru0108            0.13416      30.00000      30.00000     121.00000       0.00000  
topohru0109            0.13624      30.00000      30.00000     121.00000       0.00000  
topohru0110            0.06339      30.00000      30.00000     121.00000       0.00000  
topohru0111            0.01958      30.00000      30.00000     121.00000       0.00000  
topohru0112            0.05230      30.00000      30.00000     121.00000       0.00000  
topohru0113            0.06247      30.00000      30.00000     121.00000       0.00000  
topohru0114            0.04303      30.00000      30.00000     121.00000       0.00000  
topohru0115            0.08889      30.00000      30.00000     121.00000       0.00000  
topohru0116            0.03538      30.00000      30.00000     121.00000       0.00000  
topohru0117            0.10772      30.00000      30.00000     121.00000       0.00000  
topohru0118            0.05548      30.00000      30.00000     121.00000       0.00000  
topohru0119            0.03219      30.00000      30.00000     121.00000       0.00000  
topohru0120            0.02659      30.00000      30.00000     121.00000       0.00000  
topohru0121            0.04623      30.00000      30.00000     121.00000       0.00000  
topohru0122            0.01193      30.00000      30.00000     121.00000       0.00000  
topohru0123            0.04613      30.00000      30.00000     121.00000       0.00000  
topohru0124            0.05389      30.00000      30.00000     121.00000       0.00000  
topohru0125            0.05962      30.00000      30.00000     121.00000       0.00000  
topohru0126            0.25017      30.00000      30.00000     121.00000       0.00000  
topohru0127            0.05418      30.00000      30.00000     121.00000       0.00000  
topohru0128            0.06451      30.00000      30.00000     121.00000       0.00000  
topohru0129            0.05507      30.00000      30.00000     121.00000       0.00000  
topohru0130            0.04129      30.00000      30.00000     121.00000       0.00000  
topohru0131            0.01905      30.00000      30.00000     121.00000       0.00000  
topohru0132            0.05758      30.00000      30.00000     121.00000       0.00000  
topohru0133            0.04703      30.00000      30.00000     121.00000       0.00000  
topohru0134            0.09380      30.00000      30.00000     121.00000       0.00000  
topohru0135            0.09409      30.00000      30.00000     121.00000       0.00000  
topohru0136            0.03554      30.00000      30.00000     121.00000       0.00000  
topohru0137            0.07087      30.00000      30.00000     121.00000       0.00000  
topohru0138            0.09153      30.00000      30.00000     121.00000       0.00000  
topohru0139            0.06751      30.00000      30.00000     121.00000       0.00000  
topohru0140            0.05859      30.00000      30.00000     121.00000       0.00000  
topohru0141            0.12473      30.00000      30.00000     121.00000       0.00000  
topohru0142            0.09379      30.00000      30.00000     121.00000       0.00000  
topohru0143            0.04730      30.00000      30.00000     121.00000       0.00000  
topohru0144            0.07102      30.00000      30.00000     121.00000       0.00000  
topohru0145            0.01900      30.00000      30.00000     121.00000       0.00000  
topohru0146            0.11644      30.00000      30.00000     121.00000       0.00000  
topohru0147            0.08868      30.00000      30.00000     121.00000       0.00000  
topohru0148            0.12480      30.00000      30.00000     121.00000       0.00000  
topohru0149            0.02862      30.00000      30.00000     121.00000       0.00000  
topohru0150            0.11245      30.00000      30.00000     121.00000       0.00000  
topohru0151            0.07647      30.00000      30.00000     121.00000       0.00000  
topohru0152            0.09418      30.00000      30.00000     121.00000       0.00000  
topohru0153            0.23582      30.00000      30.00000     121.00000       0.00000  
topohru0154            0.04795      30.00000      30.00000     121.00000       0.00000  
topohru0155            0.06440      30.00000      30.00000     121.00000       0.00000  
topohru0156            0.07129      30.00000      30.00000     121.00000       0.00000  
topohru0157            0.07660      30.00000      30.00000     121.00000       0.00000  
topohru0158            0.05571      30.00000      30.00000     121.00000       0.00000  
topohru0159            0.05098      30.00000      30.00000     121.00000       0.00000  
topohru0160            0.07248      30.00000      30.00000     121.00000       0.00000  
topohru0161            0.06441      30.00000      30.00000     121.00000       0.00000  
topohru0162            0.12597      30.00000      30.00000     121.00000       0.00000  
topohru0163            0.06444      30.00000      30.00000     121.00000       0.00000  
topohru0164            0.13761      30.00000      30.00000     121.00000       0.00000  
topohru0165            0.05991      30.00000      30.00000     121.00000       0.00000  
topohru0166            0.09655      30.00000      30.00000     121.00000       0.00000  
topohru0167            0.07542      30.00000      30.00000     121.00000       0.00000  
topohru0168            0.07671      30.00000      30.00000     121.00000       0.00000  
topohru0169            0.07523      30.00000      30.00000     121.00000       0.00000  
topohru0170            0.09464      30.00000      30.00000     121.00000       0.00000  
topohru0171            0.04787      30.00000      30.00000     121.00000       0.00000  
topohru0172            0.05564      30.00000      30.00000     121.00000       0.00000  
topohru0173            0.09409      30.00000      30.00000     121.00000       0.00000  
topohru0174            0.08308      30.00000      30.00000     121.00000       0.00000  
topohru0175            0.07070      30.00000      30.00000     121.00000       0.00000  
topohru0176            0.02779      30.00000      30.00000     121.00000       0.00000  
topohru0177            0.08852      30.00000      30.00000     121.00000       0.00000  
topohru0178            0.03940      30.00000      30.00000     121.00000       0.00000  
topohru0179            0.05684      30.00000      30.00000     121.00000       0.00000  
topohru0180            0.17338      30.00000      30.00000     121.00000       0.00000  
topohru0181            0.07702      30.00000      30.00000     121.00000       0.00000  
topohru0182            0.08829      30.00000      30.00000     121.00000       0.00000  
topohru0183            0.11824      30.00000      30.00000     121.00000       0.00000  
topohru0184            0.08073      30.00000      30.00000     121.00000       0.00000  
topohru0185            0.05009      30.00000      30.00000     121.00000       0.00000  
topohru0186            0.05861      30.00000      30.00000     121.00000       0.00000  
topohru0187            0.02981      30.00000      30.00000     121.00000       0.00000  
topohru0188            0.03050      30.00000      30.00000     121.00000       0.00000  
topohru0189            0.04258      30.00000      30.00000     121.00000       0.00000  
topohru0190            0.06862      30.00000      30.00000     121.00000       0.00000  
topohru0191            0.04921      30.00000      30.00000     121.00000       0.00000  
topohru0192            0.07345      30.00000      30.00000     121.00000       0.00000  
topohru0193            0.01624      30.00000      30.00000     121.00000       0.00000  
topohru0194            0.11019      30.00000      30.00000     121.00000       0.00000  
topohru0195            0.08331      30.00000      30.00000     121.00000       0.00000  
topohru0196            0.03650      30.00000      30.00000     121.00000       0.00000  
topohru0197            0.03822      30.00000      30.00000     121.00000       0.00000  
topohru0198            0.03650      30.00000      30.00000     121.00000       0.00000  
topohru0199            0.06115      30.00000      30.00000     121.00000       0.00000  
topohru0200            0.02036      30.00000      30.00000     121.00000       0.00000  
topohru0201            0.02372      30.00000      30.00000     121.00000       0.00000  
topohru0202            0.03147      30.00000      30.00000     121.00000       0.00000  
topohru0203            0.08489      30.00000      30.00000     121.00000       0.00000  
topohru0204            0.02510      30.00000      30.00000     121.00000       0.00000  
topohru0205            0.07987      30.00000      30.00000     121.00000       0.00000  
topohru0206            0.13049      30.00000      30.00000     121.00000       0.00000  
topohru0207            0.04766      30.00000      30.00000     121.00000       0.00000  
topohru0208            0.05847      30.00000      30.00000     121.00000       0.00000  
topohru0209            0.09339      30.00000      30.00000     121.00000       0.00000  
topohru0210            0.02022      30.00000      30.00000     121.00000       0.00000  
topohru0211            0.05589      30.00000      30.00000     121.00000       0.00000  
topohru0212            0.07410      30.00000      30.00000     121.00000       0.00000  
topohru0213            0.04597      30.00000      30.00000     121.00000       0.00000  
topohru0214            0.12096      30.00000      30.00000     121.00000       0.00000  
topohru0215            0.12308      30.00000      30.00000     121.00000       0.00000  
topohru0216            0.06719      30.00000      30.00000     121.00000       0.00000  
topohru0217            0.02347      30.00000      30.00000     121.00000       0.00000  
topohru0218            0.01771      30.00000      30.00000     121.00000       0.00000  
topohru0219            0.04090      30.00000      30.00000     121.00000       0.00000  
topohru0220            0.11013      30.00000      30.00000     121.00000       0.00000  
topohru0221            0.09167      30.00000      30.00000     121.00000       0.00000  
topohru0222            0.24736      30.00000      30.00000     121.00000       0.00000  
topohru0223            0.02599      30.00000      30.00000     121.00000       0.00000  
topohru0224            0.16499      30.00000      30.00000     121.00000       0.00000  
topohru0225            0.08201      30.00000      30.00000     121.00000       0.00000  
topohru0226            0.02190      30.00000      30.00000     121.00000       0.00000  
topohru0227            0.03310      30.00000      30.00000     121.00000       0.00000  
topohru0228            0.15870      30.00000      30.00000     121.00000       0.00000  
topohru0229            0.06105      30.00000      30.00000     121.00000       0.00000  
topohru0230            0.02702      30.00000      30.00000     121.00000       0.00000  
topohru0231            0.04500      30.00000      30.00000     121.00000       0.00000  
topohru0232            0.09328      30.00000      30.00000     121.00000       0.00000  
topohru0233            0.02496      30.00000      30.00000     121.00000       0.00000  
topohru0234            0.21687      30.00000      30.00000     121.00000       0.00000  
topohru0235            0.06326      30.00000      30.00000     121.00000       0.00000  
topohru0236            0.12473      30.00000      30.00000     121.00000       0.00000  
topohru0237            0.03949      30.00000      30.00000     121.00000       0.00000  
topohru0238            0.05737      30.00000      30.00000     121.00000       0.00000  
topohru0239            0.06178      30.00000      30.00000     121.00000       0.00000  
topohru0240            0.13301      30.00000      30.00000     121.00000       0.00000  
topohru0241            0.04945      30.00000      30.00000     121.00000       0.00000  
topohru0242            0.14290      30.00000      30.00000     121.00000       0.00000  
topohru0243            0.15080      30.00000      30.00000     121.00000       0.00000  
topohru0244            0.11580      30.00000      30.00000     121.00000       0.00000  
topohru0245            0.19382      30.00000      30.00000     121.00000       0.00000  
topohru0246            0.22001      30.00000      30.00000     121.00000       0.00000  
topohru0247            0.12119      30.00000      30.00000     121.00000       0.00000  
topohru0248            0.04550      30.00000      30.00000     121.00000       0.00000  
topohru0249            0.02381      30.00000      30.00000     121.00000       0.00000  
topohru0250            0.16237      30.00000      30.00000     121.00000       0.00000  
topohru0251            0.06279      30.00000      30.00000     121.00000       0.00000  
topohru0252            0.07259      30.00000      30.00000     121.00000       0.00000  
topohru0253            0.11862      30.00000      30.00000     121.00000       0.00000  
topohru0254            0.08478      30.00000      30.00000     121.00000       0.00000  
topohru0255            0.10783      30.00000      30.00000     121.00000       0.00000  
topohru0256            0.10114      30.00000      30.00000     121.00000       0.00000  
topohru0257            0.07335      30.00000      30.00000     121.00000       0.00000  
topohru0258            0.05756      30.00000      30.00000     121.00000       0.00000  
topohru0259            0.02408      30.00000      30.00000     121.00000       0.00000  
topohru0260            0.02631      30.00000      30.00000     121.00000       0.00000  
topohru0261            0.21526      30.00000      30.00000     121.00000       0.00000  
topohru0262            0.01303      30.00000      30.00000     121.00000       0.00000  
topohru0263            0.00038      30.00000      30.00000     121.00000       0.00000  
topohru0264            0.06702      30.00000      30.00000     121.00000       0.00000  
topohru0265            0.07653      30.00000      30.00000     121.00000       0.00000  
topohru0266            0.03262      30.00000      30.00000     121.00000       0.00000  
topohru0267            0.02300      30.00000      30.00000     121.00000       0.00000  
topohru0268            0.04598      30.00000      30.00000     121.00000       0.00000  
topohru0269            0.04833      30.00000      30.00000     121.00000       0.00000  
topohru0270            0.03604      30.00000      30.00000     121.00000       0.00000  
topohru0271            0.09835      30.00000      30.00000     121.00000       0.00000  
topohru0272            0.11550      30.00000      30.00000     121.00000       0.00000  
topohru0273            0.10639      30.00000      30.00000     121.00000       0.00000  
topohru0274            0.08747      30.00000      30.00000     121.00000       0.00000  
topohru0275            0.05612      30.00000      30.00000     121.00000       0.00000  
topohru0276            0.05791      30.00000      30.00000     121.00000       0.00000  
topohru0277            0.03887      30.00000      30.00000     121.00000       0.00000  
topohru0278            0.10795      30.00000      30.00000     121.00000       0.00000  
topohru0279            0.05484      30.00000      30.00000     121.00000       0.00000  
topohru0280            0.04441      30.00000      30.00000     121.00000       0.00000  
topohru0281            0.03411      30.00000      30.00000     121.00000       0.00000  
topohru0282            0.05166      30.00000      30.00000     121.00000       0.00000  
topohru0283            0.14119      30.00000      30.00000     121.00000       0.00000  
topohru0284            0.09947      30.00000      30.00000     121.00000       0.00000  
topohru0285            0.10323      30.00000      30.00000     121.00000       0.00000  
topohru0286            0.04654      30.00000      30.00000     121.00000       0.00000  
topohru0287            0.12000      30.00000      30.00000     121.00000       0.00000  
topohru0288            0.06838      30.00000      30.00000     121.00000       0.00000  
topohru0289            0.10833      30.00000      30.00000     121.00000       0.00000  
topohru0290            0.12178      30.00000      30.00000     121.00000       0.00000  
topohru0291            0.08271      30.00000      30.00000     121.00000       0.00000  
topohru0292            0.10708      30.00000      30.00000     121.00000       0.00000  
topohru0293            0.01926      30.00000      30.00000     121.00000       0.00000  
topohru0294            0.03901      30.00000      30.00000     121.00000       0.00000  
topohru0295            0.07617      30.00000      30.00000     121.00000       0.00000  
topohru0296            0.06842      30.00000      30.00000     121.00000       0.00000  
topohru0297            0.02886      30.00000      30.00000     121.00000       0.00000  
topohru0298            0.02875      30.00000      30.00000     121.00000       0.00000  
topohru0299            0.02344      30.00000      30.00000     121.00000       0.00000  
topohru0300            0.02775      30.00000      30.00000     121.00000       0.00000  
topohru0301            0.16541      30.00000      30.00000     121.00000       0.00000  
topohru0302            0.06368      30.00000      30.00000     121.00000       0.00000  
topohru0303            0.01251      30.00000      30.00000     121.00000       0.00000  
topohru0304            0.13130      30.00000      30.00000     121.00000       0.00000  
topohru0305            0.07322      30.00000      30.00000     121.00000       0.00000  
topohru0306            0.09119      30.00000      30.00000     121.00000       0.00000  
topohru0307            0.05835      30.00000      30.00000     121.00000       0.00000  
topohru0308            0.03318      30.00000      30.00000     121.00000       0.00000  
topohru0309            0.02477      30.00000      30.00000     121.00000       0.00000  
topohru0310            0.10254      30.00000      30.00000     121.00000       0.00000  
topohru0311            0.21873      30.00000      30.00000     121.00000       0.00000  
topohru0312            0.12058      30.00000      30.00000     121.00000       0.00000  
topohru0313            0.14514      30.00000      30.00000     121.00000       0.00000  
topohru0314            0.16820      30.00000      30.00000     121.00000       0.00000  
topohru0315            0.18722      30.00000      30.00000     121.00000       0.00000  
topohru0316            0.12939      30.00000      30.00000     121.00000       0.00000  
topohru0317            0.17763      30.00000      30.00000     121.00000       0.00000  
topohru0318            0.18440      30.00000      30.00000     121.00000       0.00000  
topohru0319            0.01724      30.00000      30.00000     121.00000       0.00000  
topohru0320            0.23187      30.00000      30.00000     121.00000       0.00000  
topohru0321            0.17190      30.00000      30.00000     121.00000       0.00000  
topohru0322            0.14510      30.00000      30.00000     121.00000       0.00000  
topohru0323            0.12237      30.00000      30.00000     121.00000       0.00000  
topohru0324            0.05709      30.00000      30.00000     121.00000       0.00000  
topohru0325            0.04268      30.00000      30.00000     121.00000       0.00000  
topohru0326            0.06427      30.00000      30.00000     121.00000       0.00000  
topohru0327            0.06140      30.00000      30.00000     121.00000       0.00000  
topohru0328            0.09667      30.00000      30.00000     121.00000       0.00000  
topohru0329            0.06240      30.00000      30.00000     121.00000       0.00000  
topohru0330            0.05401      30.00000      30.00000     121.00000       0.00000  
topohru0331            0.12377      30.00000      30.00000     121.00000       0.00000  
topohru0332            0.18215      30.00000      30.00000     121.00000       0.00000  
topohru0333            0.21429      30.00000      30.00000     121.00000       0.00000  
topohru0334            0.15577      30.00000      30.00000     121.00000       0.00000  
topohru0335            0.05399      30.00000      30.00000     121.00000       0.00000  