weather-sta.cli: written by SWAT+ editor v2.2.0 on 2024-01-15 12:53 for SWAT+ rev.60.5.4
name                           wgn                        pcp                        tmp                        slr                        hmd                        wnd           wnd_dir          atmo_dep  
s466n177e                Tetves242                sta_id1.pcp                sta_id1.tmp                sta_id1.slr                sta_id1.hmd                sta_id1.wnd              null       atmodep.cli  
s466n178e                Tetves263                sta_id3.pcp                sta_id3.tmp                sta_id3.slr                sta_id3.hmd                sta_id3.wnd              null       atmodep.cli  
s467n177e                Tetves243                sta_id2.pcp                sta_id2.tmp                sta_id2.slr                sta_id2.hmd                sta_id2.wnd              null       atmodep.cli  
s467n178e                Tetves264                sta_id4.pcp                sta_id4.tmp                sta_id4.slr                sta_id4.hmd                sta_id4.wnd              null       atmodep.cli  
