weather-wgn.cli: written by SWAT+ editor v2.2.0 on 2024-01-15 12:53 for SWAT+ rev.60.5.4
Tetves242                      46.60000      17.70000     189.00000        23  
 tmp_max_ave   tmp_min_ave    tmp_max_sd    tmp_min_sd       pcp_ave        pcp_sd      pcp_skew       wet_dry       wet_wet      pcp_days       pcp_hhr       slr_ave       dew_ave       wnd_ave  
     3.35279      -3.10450       4.94981       4.30302       1.18687       3.26152       4.47801       0.30380       0.62264      13.82609      11.84204       3.38745       0.85572       3.20508  
     6.02323      -1.63346       5.43767       4.64238       1.64482       3.59878       3.10229       0.31304       0.64590      13.26087       9.73729       6.29474       0.79387       3.64209  
    11.34203       1.18898       5.43681       3.96196       1.24920       3.27835       4.05559       0.26340       0.59859      12.34783       9.90826      11.60803       0.71888       3.69968  
    17.56080       5.61158       4.63481       3.34749       1.47148       3.73533       4.06128       0.29803       0.57394      12.34783      12.69306      16.58693       0.67750       3.45120  
    21.69129       9.79279       4.36784       3.05204       2.46203       5.42154       4.07773       0.32520       0.64826      14.95652      21.86807      19.89061       0.71944       3.46344  
    25.54726      13.73881       4.24384       2.94276       2.50630       5.74548       3.57963       0.34943       0.63314      14.69565      15.31069      21.48177       0.73697       2.89890  
    27.53957      14.97449       3.99728       2.57244       2.42355       6.12952       4.07096       0.30909       0.63720      14.26087      20.70172      22.10973       0.72722       2.73592  
    27.23098      14.71220       4.08666       2.62642       2.36440       5.85999       3.69122       0.25536       0.51822      10.73913      18.21706      19.52318       0.73622       2.53869  
    21.72474      10.75981       4.33411       3.05709       2.30996       5.75109       3.65760       0.23095       0.64074      11.73913      16.27188      13.51132       0.79064       2.58335  
    16.43985       6.48541       4.66931       3.87066       2.08445       5.53523       3.62985       0.24236       0.56078      11.08696      16.48464       8.33189       0.83161       2.73758  
     9.79781       2.31609       5.11206       3.86316       1.79067       4.39690       3.76369       0.27068       0.62543      12.65217      15.34108       4.37973       0.87034       3.07162  
     4.11996      -1.84756       4.66387       4.28556       1.57021       3.78969       3.67344       0.30102       0.62928      13.95652      13.08437       2.43031       0.87103       3.11885  
Tetves243                      46.70000      17.70000     218.00000        23  
 tmp_max_ave   tmp_min_ave    tmp_max_sd    tmp_min_sd       pcp_ave        pcp_sd      pcp_skew       wet_dry       wet_wet      pcp_days       pcp_hhr       slr_ave       dew_ave       wnd_ave  
     3.23931      -3.06978       4.82524       4.20910       1.23072       3.30707       4.22788       0.33705       0.65537      15.39130      10.73648       4.29837       0.84717       2.28590  
     6.06085      -1.71189       5.35834       4.60839       1.61551       3.58480       3.19162       0.31611       0.67601      13.95652       9.61952       6.87023       0.78448       2.63657  
    11.46302       1.55170       5.38040       3.90272       1.25112       3.29407       4.06917       0.27873       0.62171      13.21739      10.02603      11.24563       0.73629       2.69790  
    17.70143       6.10812       4.62645       3.31313       1.36446       3.59844       4.84794       0.31169       0.60656      13.26087      15.31829      16.70148       0.69114       2.53468  
    21.90603      10.30776       4.36392       3.01212       2.16165       4.48073       3.36822       0.42857       0.68447      17.91304      13.49088      19.79152       0.71983       2.69939  
    25.77239      14.10445       4.24644       2.93078       2.43878       5.49170       3.65570       0.38769       0.65205      15.86957      15.07894      20.08517       0.72040       2.32013  
    27.80766      15.45464       4.01358       2.56512       2.36648       5.79776       3.73750       0.32665       0.68681      15.82609      16.47324      21.77255       0.70365       2.12582  
    27.47348      15.07673       4.08545       2.61579       2.43295       5.77143       3.29114       0.29238       0.61111      13.30435      16.87595      19.16745       0.70810       2.11360  
    21.96159      11.07436       4.32054       3.02541       2.26370       5.65858       3.67775       0.25781       0.67647      13.30435      17.70037      14.08698       0.76520       1.90267  
    16.54840       6.83108       4.60534       3.81182       1.93776       5.15308       3.68793       0.25714       0.62799      12.73913      14.46347       8.85081       0.82345       1.88177  
     9.81487       2.71664       4.99650       3.84823       1.73614       4.20119       3.67773       0.35843       0.66480      15.56522      13.88600       5.50487       0.86446       2.18748  
     4.08387      -1.74540       4.53693       4.22952       1.51969       3.79499       4.07088       0.34940       0.69291      16.56522      14.36849       3.34479       0.85215       2.08765  
Tetves263                      46.60000      17.80000     185.00000        23  
 tmp_max_ave   tmp_min_ave    tmp_max_sd    tmp_min_sd       pcp_ave        pcp_sd      pcp_skew       wet_dry       wet_wet      pcp_days       pcp_hhr       slr_ave       dew_ave       wnd_ave  
     3.56725      -2.67379       5.01909       4.48105       1.29896       3.57423       4.33334       0.30607       0.65269      14.52174      11.18858       3.84985       0.83694       2.89716  
     6.07502      -1.24483       5.45834       4.83395       1.67243       3.74716       3.33473       0.31707       0.67702      14.00000      10.88845       6.88317       0.75076       3.27142  
    11.35484       1.33788       5.47295       4.08819       1.32999       3.49028       3.96791       0.27751       0.60339      12.82609      10.96063      11.54116       0.69320       3.30100  
    17.60294       5.70172       4.66859       3.44017       1.44078       3.88538       4.69504       0.34031       0.57792      13.39130      15.81978      15.75140       0.65095       3.12865  
    21.76858       9.85574       4.38675       3.12870       2.49435       5.37732       3.72977       0.40426       0.65104      16.69565      19.09847      18.88326       0.70095       3.25871  
    25.61542      14.15509       4.25694       2.98325       2.57988       6.04918       3.71909       0.35311       0.62500      14.60870      15.74759      21.80803       0.70960       2.79667  
    27.60484      15.03884       4.01878       2.61242       2.49178       6.13752       3.74505       0.33151       0.65230      15.13043      17.66618      21.19892       0.69923       2.40877  
    27.28913      15.18583       4.13146       2.67944       2.49853       6.19154       3.68747       0.31100       0.55932      12.82609      20.41299      20.10363       0.70513       2.32218  
    21.78970      11.21212       4.39779       3.15427       2.33367       5.84863       3.76748       0.24190       0.66436      12.56522      19.91529      13.70788       0.75529       2.29583  
    16.51725       6.86268       4.73584       4.03768       2.06208       5.59989       3.73246       0.24390       0.57634      11.39130      18.16767       8.57298       0.80933       2.38306  
     9.94828       2.38794       5.19544       3.95066       1.85996       4.60270       3.68073       0.32194       0.66372      14.73913      15.32968       5.02575       0.84653       2.61202  
     4.33707      -1.41994       4.72569       4.45296       1.61940       3.99059       3.80293       0.32973       0.64140      14.91304      13.40730       2.91937       0.85104       2.74590  
Tetves264                      46.70000      17.80000     211.00000        23  
 tmp_max_ave   tmp_min_ave    tmp_max_sd    tmp_min_sd       pcp_ave        pcp_sd      pcp_skew       wet_dry       wet_wet      pcp_days       pcp_hhr       slr_ave       dew_ave       wnd_ave  
     3.05801      -3.00288       4.90717       4.33740       1.29059       3.49678       4.07051       0.30711       0.62069      13.86957      10.01084       3.41040       0.82303       2.61752  
     5.66872      -1.34743       5.43601       4.65017       1.67180       3.79874       3.41878       0.31034       0.64238      13.13043      10.58071       6.10366       0.76243       3.00181  
    10.95079       1.77791       5.42616       3.97104       1.27558       3.41893       4.03465       0.26389       0.59075      12.21739      10.14761      11.46500       0.69305       3.07379  
    17.18170       6.31368       4.64435       3.30987       1.38593       3.77448       4.95300       0.30318       0.55872      12.21739      16.51503      16.83500       0.64665       2.84422  
    21.31424      10.48450       4.36552       3.02578       2.17645       4.65630       3.57555       0.42183       0.61497      16.26087      14.96876      20.03037       0.67340       2.68582  
    25.15523      13.45752       4.24365       2.92628       2.54238       6.00011       3.82830       0.34521       0.60923      14.13043      16.43525      21.33880       0.69385       2.39095  
    27.15426      15.84072       4.00192       2.54765       2.38722       5.96574       3.82410       0.31888       0.61059      13.95652      16.93294      22.84350       0.68141       2.30763  
    26.87342      14.24407       4.10070       2.59478       2.42561       5.94232       3.54817       0.28702       0.54015      11.91304      18.95030      19.72194       0.68647       2.09966  
    21.38268      10.32651       4.34244       3.00500       2.31246       5.73305       3.62664       0.24079       0.65371      12.30435      16.80757      13.63720       0.72945       2.15533  
    16.06582       6.05024       4.65009       3.82710       1.95237       5.29907       3.78215       0.24270       0.59328      11.65217      15.71720       8.64269       0.77298       2.09802  
     9.56658       2.85887       5.05005       3.84053       1.79042       4.36506       3.67647       0.32394       0.65373      14.56522      14.50906       4.35397       0.82572       2.41328  
     3.83272      -1.76107       4.63855       4.27810       1.58067       3.95633       4.01388       0.31234       0.63855      14.43478      14.03037       2.48150       0.82075       2.33676  
