chandeg.con: rewritten by SWATprepR R package 2024-03-18 08:29:30 for SWAT+ rev.60.5.4
      id  name                gis_id          area           lat           lon          elev      lcha               wst       cst      ovfl      rule   out_tot       obj_typ    obj_id       hyd_typ          frac
       1  cha001                   0     181.66410      49.64780      15.03844     479.76237         1     s49616n15078e         0         0         0         1           sdc        86           tot       1.00000                                                
       2  cha002                   0       6.07665      49.67210      15.04156     479.76950         2     s49616n15078e         0         0         0         1           res         4           tot       1.00000                                                
       3  cha003                   0       6.88690      49.67044      15.04475     479.76913         3     s49616n15078e         0         0         0         1           sdc       188           tot       1.00000                                                
       4  cha004                   0       4.89620      49.63245      14.99024     485.26711         4     s49616n15078e         0         0         0         1           sdc        82           tot       1.00000                                                
       5  cha005                   0     167.51100      49.64287      15.02185     479.76451         5     s49616n15078e         0         0         0         1           res        44           tot       1.00000                                                
       6  cha006                   0       7.03798      49.60858      15.04982     483.04338         6     s49616n15078e         0         0         0         1           sdc        79           tot       1.00000                                                
       7  cha007                   0      68.69404      49.63340      14.95293     509.64180         7     s49616n15078e         0         0         0         1           sdc        20           tot       1.00000                                                
       8  cha008                   0       2.98075      49.62887      15.07738     479.77473         8     s49616n15078e         0         0         0         1           sdc        72           tot       1.00000                                                
       9  cha009                   0      17.52010      49.63277      15.05703     479.77530         9     s49616n15078e         0         0         0         1           sdc       120           tot       1.00000                                                
      10  cha010                   0     119.65160      49.64219      14.99719     479.76776        10     s49616n15078e         0         0         0         1           sdc        55           tot       1.00000                                                
      11  cha011                   0       2.75840      49.61321      15.08204     490.71098        11     s49616n15078e         0         0         0         1           sdc       207           tot       1.00000                                                
      12  cha012                   0       0.01600      49.63167      15.05104     479.77600        12     s49616n15078e         0         0         0         1           sdc         9           tot       1.00000                                                
      13  cha013                   0       1.60060      49.61126      14.97087     597.63382        13     s49616n15078e         0         0         0         1           sdc       191           tot       1.00000                                                
      14  cha014                   0       4.54596      49.64659      15.01894     479.76483        14     s49616n15078e         0         0         0         1           sdc        28           tot       1.00000                                                
      15  cha015                   0     140.75720      49.63836      15.07631     479.77286        15     s49616n15078e         0         0         0         1           sdc        63           tot       1.00000                                                
      16  cha016                   0      96.61000      49.63495      14.97364     479.77069        16     s49616n15078e         0         0         0         1           sdc       208           tot       1.00000                                                
      17  cha017                   0      11.03910      49.62944      15.00851     479.76779        17     s49616n15078e         0         0         0         1           sdc       104           tot       1.00000                                                
      18  cha018                   0      99.47290      49.63845      14.98146     479.76970        18     s49616n15078e         0         0         0         1           sdc        68           tot       1.00000                                                
      19  cha019                   0       0.36130      49.66789      15.06623     479.76834        19     s49616n15078e         0         0         0         1           sdc       158           tot       1.00000                                                
      20  cha020                   0      75.04952      49.63382      14.96185     491.28610        20     s49616n15078e         0         0         0         1           res        70           tot       1.00000                                                
      21  cha021                   0     138.45310      49.64082      15.00656     479.76668        21     s49616n15078e         0         0         0         1           res        71           tot       1.00000                                                
      22  cha022                   0      30.11237      49.61839      15.06307     479.77660        22     s49616n15078e         0         0         0         1           sdc        23           tot       1.00000                                                
      23  cha023                   0      30.49860      49.62149      15.06639     479.77605        23     s49616n15078e         0         0         0         1           sdc        62           tot       1.00000                                                
      24  cha024                   0      10.16000      49.63615      14.99397     479.76865        24     s49616n15078e         0         0         0         1           sdc       209           tot       1.00000                                                
      25  cha025                   0       0.00001      49.63434      14.97076     479.77103        25     s49616n15078e         0         0         0         1           sdc        16           tot       1.00000                                                
      26  cha026                   0       0.55520      49.64705      15.08281     479.77162        26     s49616n15078e         0         0         0         1           sdc       167           tot       1.00000                                                
      27  cha027                   0       0.46401      49.65123      15.06649     479.76518        27     s49616n15078e         0         0         0         1           sdc       177           tot       1.00000                                                
      28  cha028                   0       6.17300      49.64536      15.02222     479.76447        28     s49616n15078e         0         0         0         1           res        44           tot       1.00000                                                
      29  cha029                   0       0.69740      49.65500      15.00755     489.26183        29     s49616n15078e         0         0         0         1           res         1           tot       1.00000                                                
      30  cha030                   0       2.32953      49.65380      15.01429     479.81607        30     s49616n15078e         0         0         0         1           res         9           tot       1.00000                                                
      31  cha031                   0       3.80240      49.64974      15.01851     479.76529        31     s49616n15078e         0         0         0         1           res         6           tot       1.00000                                                
      32  cha032                   0       0.00001      49.60368      15.07432     522.75317        32     s49616n15078e         0         0         0         1           res        65           tot       1.00000                                                
      33  cha033                   0       1.27492      49.60492      15.07339     511.32153        33     s49616n15078e         0         0         0         1           res        74           tot       1.00000                                                
      34  cha034                   0       2.71440      49.60647      15.07287     496.66573        34     s49616n15078e         0         0         0         1           res        64           tot       1.00000                                                
      35  cha035                   0       3.26380      49.61040      15.07132     486.31610        35     s49616n15078e         0         0         0         1           sdc       107           tot       1.00000                                                
      36  cha036                   0       0.29440      49.65474      15.07967     479.76996        36     s49616n15078e         0         0         0         1           sdc       113           tot       1.00000                                                
      37  cha037                   0       0.85410      49.64253      15.03856     479.76357        37     s49616n15078e         0         0         0         1           sdc       165           tot       1.00000                                                
      38  cha038                   0       6.91760      49.67192      15.04530     479.76936        38     s49616n15078e         0         0         0         1           sdc       188           tot       1.00000                                                
      39  cha039                   0       6.52500      49.65664      15.04333     479.76416        39     s49616n15078e         0         0         0         1           sdc        64           tot       1.00000                                                
      40  cha040                   0       1.85080      49.64515      15.07241     479.77229        40     s49616n15078e         0         0         0         1           sdc       162           tot       1.00000                                                
      41  cha041                   0       3.72160      49.61908      15.00667     529.98405        41     s49616n15078e         0         0         0         1           sdc       164           tot       1.00000                                                
      42  cha042                   0     153.08011      49.65044      15.07930     479.77052        42     s49616n15078e         0         0         0         1           sdc       113           tot       1.00000                                                
      43  cha043                   0     460.32400      49.65416      15.03042     479.76083        43     s49616n15078e         0         0         0         1           sdc       196           tot       1.00000                                                
      44  cha044                   0     119.67710      49.64203      14.99849     479.76759        44     s49616n15078e         0         0         0         1           sdc        55           tot       1.00000                                                
      45  cha045                   0       3.60570      49.62643      14.99031     515.43584        45     s49616n15078e         0         0         0         1           sdc        65           tot       1.00000                                                
      46  cha046                   0       9.38240      49.64103      14.99709     479.76788        46     s49616n15078e         0         0         0         1           res        13           tot       1.00000                                                
      47  cha047                   0     156.15840      49.65873      15.08651     479.76878        47     s49616n15078e         0         0         0         1           sdc       190           tot       1.00000                                                
      48  cha048                   0       2.94414      49.64601      15.00086     480.95821        48     s49616n15078e         0         0         0         1           sdc        21           tot       1.00000                                                
      49  cha049                   0      10.46210      49.63619      14.99367     479.76863        49     s49616n15078e         0         0         0         1           sdc       209           tot       1.00000                                                
      50  cha050                   0       2.23650      49.63723      15.05883     479.77522        50     s49616n15078e         0         0         0         1           sdc        59           tot       1.00000                                                
      51  cha051                   0       0.95862      49.61519      15.00566     559.86029        51     s49616n15078e         0         0         0         1           sdc        41           tot       1.00000                                                
      52  cha052                   0       0.15160      49.62523      14.98931     523.30222        52     s49616n15078e         0         0         0         1           sdc       173           tot       1.00000                                                
      53  cha053                   0       0.82470      49.61367      14.96850     590.31805        53     s49616n15078e         0         0         0         1           sdc       192           tot       1.00000                                                
      54  cha054                   0       1.38130      49.64090      14.97204     494.25745        54     s49616n15078e         0         0         0         1           sdc       114           tot       1.00000                                                
      55  cha055                   0     132.32634      49.64187      15.00102     479.76733        55     s49616n15078e         0         0         0         1           sdc        21           tot       1.00000                                                
      56  cha056                   0       0.30130      49.66801      15.04515     479.76907        56     s49616n15078e         0         0         0         1           res        61           tot       1.00000                                                
      57  cha057                   0     120.52740      49.63622      15.07377     479.77330        57     s49616n15078e         0         0         0         1           sdc        15           tot       1.00000                                                
      58  cha058                   0       0.62393      49.62129      15.01036     528.10178        58     s49616n15078e         0         0         0         1           sdc       164           tot       1.00000                                                
      59  cha059                   0       0.01800      49.63711      15.05917     479.77519        59     s49616n15078e         0         0         0         1           res        25           tot       1.00000                                                
      60  cha060                   0       3.29320      49.63527      15.06142     479.77483        60     s49616n15078e         0         0         0         1           sdc       120           tot       1.00000                                                
      61  cha061                   0     181.57026      49.64712      15.03511     479.76274        61     s49616n15078e         0         0         0         1           sdc         1           tot       1.00000                                                
      62  cha062                   0      86.39010      49.62576      15.06851     479.77530        62     s49616n15078e         0         0         0         1           sdc        96           tot       1.00000                                                
      63  cha063                   0     140.91300      49.63992      15.07776     479.77257        63     s49616n15078e         0         0         0         1           sdc       111           tot       1.00000                                                
      64  cha064                   0     261.63440      49.65142      15.05328     479.76364        64     s49616n15078e         0         0         0         1           sdc        77           tot       1.00000                                                
      65  cha065                   0       3.96880      49.62894      14.99066     499.11026        65     s49616n15078e         0         0         0         2           sdc        66           tot       0.50000           sdc           115           tot           0.5
      66  cha066                   0       4.31770      49.63030      14.99083     493.66176        66     s49616n15078e         0         0         0         1           sdc         4           tot       1.00000                                                
      67  cha067                   0       3.07320      49.65111      14.96873     509.78830        67     s49616n15078e         0         0         0         1           sdc        92           tot       1.00000                                                
      68  cha068                   0      70.44910      49.64110      14.98572     479.76910        68     s49616n15078e         0         0         0         1           sdc       108           tot       1.00000                                                
      69  cha069                   0      28.69000      49.61670      15.09736     502.66008        69     s49616n15078e         0         0         0         1           res        17           tot       1.00000                                                
      70  cha070                   0      31.35900      49.61691      15.09146     495.69356        70     s49616n15078e         0         0         0         1           res        72           tot       1.00000                                                
      71  cha071                   0      32.05582      49.61883      15.08478     484.47522        71     s49616n15078e         0         0         0         1           sdc       205           tot       1.00000                                                
      72  cha072                   0      91.19840      49.63342      15.07287     479.77385        72     s49616n15078e         0         0         0         1           sdc        57           tot       1.00000                                                
      73  cha073                   0       9.21630      49.61972      14.95827     536.40186        73     s49616n15078e         0         0         0         1           res        10           tot       1.00000                                                
      74  cha074                   0       9.61300      49.62257      14.96056     526.16431        74     s49616n15078e         0         0         0         1           res        45           tot       1.00000                                                
      75  cha075                   0      14.16330      49.62945      14.96666     497.36235        75     s49616n15078e         0         0         0         1           res        70           tot       1.00000                                                
      76  cha076                   0       2.07830      49.60963      15.04271     498.42181        76     s49616n15078e         0         0         0         1           sdc       151           tot       1.00000                                                
      77  cha077                   0     260.14770      49.65076      15.05886     479.76427        77     s49616n15078e         0         0         0         1           res        33           tot       1.00000                                                
      78  cha078                   0     259.25890      49.65170      15.06375     479.76482        78     s49616n15078e         0         0         0         1           sdc       177           tot       1.00000                                                
      79  cha079                   0      15.93330      49.61216      15.05304     479.77803        79     s49616n15078e         0         0         0         1           sdc       159           tot       1.00000                                                
      80  cha080                   0       1.72260      49.60157      15.05772     513.85718        80     s49616n15078e         0         0         0         1           res        68           tot       1.00000                                                
      81  cha081                   0       5.68420      49.60522      15.05564     488.38586        81     s49616n15078e         0         0         0         1           sdc       202           tot       1.00000                                                
      82  cha082                   0       9.66240      49.63476      14.99078     479.76898        82     s49616n15078e         0         0         0         2           sdc        24           tot       0.50000           sdc            49           tot           0.5
      83  cha083                   0       2.64270      49.62773      15.04283     479.77705        83     s49616n15078e         0         0         0         1           res        76           tot       1.00000                                                
      84  cha084                   0       3.17384      49.63015      15.04797     479.77644        84     s49616n15078e         0         0         0         1           sdc        12           tot       1.00000                                                
      85  cha085                   0      18.84749      49.66127      15.06288     479.76704        85     s49616n15078e         0         0         0         1           sdc       152           tot       1.00000                                                
      86  cha086                   0     264.86693      49.64974      15.04479     479.76259        86     s49616n15078e         0         0         0         1           sdc        64           tot       1.00000                                                
      87  cha087                   0       3.41620      49.62770      14.99016     506.04878        87     s49616n15078e         0         0         0         1           sdc        65           tot       1.00000                                                
      88  cha088                   0       0.72971      49.61541      14.99200     584.64090        88     s49616n15078e         0         0         0         1           res        23           tot       1.00000                                                
      89  cha089                   0       0.90230      49.61659      14.99511     572.46185        89     s49616n15078e         0         0         0         1           res        34           tot       1.00000                                                
      90  cha090                   0       3.11560      49.62045      15.00086     538.38063        90     s49616n15078e         0         0         0         1           res         3           tot       1.00000                                                
      91  cha091                   0       0.00620      49.62362      15.00354     507.12044        91     s49616n15078e         0         0         0         1           sdc       193           tot       1.00000                                                
      92  cha092                   0       6.19451      49.64614      14.97830     491.05133        92     s49616n15078e         0         0         0         1           sdc       108           tot       1.00000                                                
      93  cha093                   0      19.38310      49.65930      15.06293     479.76703        93     s49616n15078e         0         0         0         1           sdc       152           tot       1.00000                                                
      94  cha094                   0       0.00001      49.62683      15.06575     479.77519        94     s49616n15078e         0         0         0         1           res        66           tot       1.00000                                                
      95  cha095                   0      18.66788      49.62701      15.06702     479.77507        95     s49616n15078e         0         0         0         1           sdc        96           tot       1.00000                                                
      96  cha096                   0      89.19740      49.63003      15.06923     479.77457        96     s49616n15078e         0         0         0         1           sdc        72           tot       1.00000                                                
      97  cha097                   0       1.67110      49.65012      14.96672     511.58003        97     s49616n15078e         0         0         0         1           sdc        92           tot       1.00000                                                
      98  cha098                   0      15.66190      49.66341      15.05932     479.76749        98     s49616n15078e         0         0         0         1           sdc        85           tot       1.00000                                                
      99  cha099                   0       0.45520      49.64084      15.07500     479.77275        99     s49616n15078e         0         0         0         1           sdc       111           tot       1.00000                                                
     100  cha100                   0       0.67950      49.62577      15.05046     479.77684       100     s49616n15078e         0         0         0         1           res        62           tot       1.00000                                                
     101  cha101                   0       0.00001      49.62753      15.05162     479.77660       101     s49616n15078e         0         0         0         1           res        75           tot       1.00000                                                
     102  cha102                   0       0.08124      49.62796      15.05168     479.77654       102     s49616n15078e         0         0         0         1           res        63           tot       1.00000                                                
     103  cha103                   0       3.63280      49.63002      15.05101     479.77623       103     s49616n15078e         0         0         0         1           sdc        12           tot       1.00000                                                
     104  cha104                   0      17.15185      49.63617      15.01068     479.76660       104     s49616n15078e         0         0         0         1           res        71           tot       1.00000                                                
     105  cha105                   0      11.75220      49.64061      14.99728     479.76790       105     s49616n15078e         0         0         0         1           sdc       116           tot       1.00000                                                
     106  cha106                   0       4.77470      49.61158      15.04523     484.83463       106     s49616n15078e         0         0         0         1           sdc       151           tot       1.00000                                                
     107  cha107                   0      30.26280      49.61640      15.06703     479.77698       107     s49616n15078e         0         0         0         1           sdc        23           tot       1.00000                                                
     108  cha108                   0       7.82390      49.64158      14.98824     479.76880       108     s49616n15078e         0         0         0         1           sdc       121           tot       1.00000                                                
     109  cha109                   0       0.01400      49.64780      14.99156     479.76903       109     s49616n15078e         0         0         0         1           res        16           tot       1.00000                                                
     110  cha110                   0       2.83430      49.64479      14.99255     479.76851       110     s49616n15078e         0         0         0         1           sdc        10           tot       1.00000                                                
     111  cha111                   0     143.31860      49.64270      15.07719     479.77213       111     s49616n15078e         0         0         0         1           sdc       162           tot       1.00000                                                
     112  cha112                   0       5.67710      49.64740      15.01945     479.76489       112     s49616n15078e         0         0         0         1           sdc        28           tot       1.00000                                                
     113  cha113                   0     155.43330      49.65644      15.08238     479.76947       113     s49616n15078e         0         0         0         1           sdc        47           tot       1.00000                                                