field.fld: written by SWAT+ editor v2.1.0 on 2023-05-02 16:02 for SWAT+ rev.60.5.4
name                       len            wd           ang  
fld0001              500.00000     100.00000      30.00000  
fld0002              500.00000     100.00000      30.00000  
fld0003              500.00000     100.00000      30.00000  
fld0004              500.00000     100.00000      30.00000  
fld0005              500.00000     100.00000      30.00000  
fld0006              500.00000     100.00000      30.00000  
fld0007              500.00000     100.00000      30.00000  
fld0008              500.00000     100.00000      30.00000  
fld0009              500.00000     100.00000      30.00000  
fld0010              500.00000     100.00000      30.00000  
fld0011              500.00000     100.00000      30.00000  
fld0012              500.00000     100.00000      30.00000  
fld0013              500.00000     100.00000      30.00000  
fld0014              500.00000     100.00000      30.00000  
fld0015              500.00000     100.00000      30.00000  
fld0016              500.00000     100.00000      30.00000  
fld0017              500.00000     100.00000      30.00000  
fld0018              500.00000     100.00000      30.00000  
fld0019              500.00000     100.00000      30.00000  
fld0020              500.00000     100.00000      30.00000  
fld0021              500.00000     100.00000      30.00000  
fld0022              500.00000     100.00000      30.00000  
fld0023              500.00000     100.00000      30.00000  
fld0024              500.00000     100.00000      30.00000  
fld0025              500.00000     100.00000      30.00000  
fld0026              500.00000     100.00000      30.00000  
fld0027              500.00000     100.00000      30.00000  
fld0028              500.00000     100.00000      30.00000  
fld0029              500.00000     100.00000      30.00000  
fld0030              500.00000     100.00000      30.00000  
fld0031              500.00000     100.00000      30.00000  
fld0032              500.00000     100.00000      30.00000  
fld0033              500.00000     100.00000      30.00000  
fld0034              500.00000     100.00000      30.00000  
fld0035              500.00000     100.00000      30.00000  
fld0036              500.00000     100.00000      30.00000  
fld0037              500.00000     100.00000      30.00000  
fld0038              500.00000     100.00000      30.00000  
fld0039              500.00000     100.00000      30.00000  
fld0040              500.00000     100.00000      30.00000  
fld0041              500.00000     100.00000      30.00000  
fld0042              500.00000     100.00000      30.00000  
fld0043              500.00000     100.00000      30.00000  
fld0044              500.00000     100.00000      30.00000  
fld0045              500.00000     100.00000      30.00000  
fld0046              500.00000     100.00000      30.00000  
fld0047              500.00000     100.00000      30.00000  
fld0048              500.00000     100.00000      30.00000  
fld0049              500.00000     100.00000      30.00000  
fld0050              500.00000     100.00000      30.00000  
fld0051              500.00000     100.00000      30.00000  
fld0052              500.00000     100.00000      30.00000  
fld0053              500.00000     100.00000      30.00000  
fld0054              500.00000     100.00000      30.00000  
fld0055              500.00000     100.00000      30.00000  
fld0056              500.00000     100.00000      30.00000  
fld0057              500.00000     100.00000      30.00000  
fld0058              500.00000     100.00000      30.00000  
fld0059              500.00000     100.00000      30.00000  
fld0060              500.00000     100.00000      30.00000  
fld0061              500.00000     100.00000      30.00000  
fld0062              500.00000     100.00000      30.00000  
fld0063              500.00000     100.00000      30.00000  
fld0064              500.00000     100.00000      30.00000  
fld0065              500.00000     100.00000      30.00000  
fld0066              500.00000     100.00000      30.00000  
fld0067              500.00000     100.00000      30.00000  
fld0068              500.00000     100.00000      30.00000  
fld0069              500.00000     100.00000      30.00000  
fld0070              500.00000     100.00000      30.00000  
fld0071              500.00000     100.00000      30.00000  
fld0072              500.00000     100.00000      30.00000  
fld0073              500.00000     100.00000      30.00000  
fld0074              500.00000     100.00000      30.00000  
fld0075              500.00000     100.00000      30.00000  
fld0076              500.00000     100.00000      30.00000  
fld0077              500.00000     100.00000      30.00000  
fld0078              500.00000     100.00000      30.00000  
fld0079              500.00000     100.00000      30.00000  
fld0080              500.00000     100.00000      30.00000  
fld0081              500.00000     100.00000      30.00000  
fld0082              500.00000     100.00000      30.00000  
fld0083              500.00000     100.00000      30.00000  
fld0084              500.00000     100.00000      30.00000  
fld0085              500.00000     100.00000      30.00000  
fld0086              500.00000     100.00000      30.00000  
fld0087              500.00000     100.00000      30.00000  
fld0088              500.00000     100.00000      30.00000  
fld0089              500.00000     100.00000      30.00000  
fld0090              500.00000     100.00000      30.00000  
fld0091              500.00000     100.00000      30.00000  
fld0092              500.00000     100.00000      30.00000  
fld0093              500.00000     100.00000      30.00000  
fld0094              500.00000     100.00000      30.00000  
fld0095              500.00000     100.00000      30.00000  
fld0096              500.00000     100.00000      30.00000  
fld0097              500.00000     100.00000      30.00000  
fld0098              500.00000     100.00000      30.00000  
fld0099              500.00000     100.00000      30.00000  
fld0100              500.00000     100.00000      30.00000  
fld0101              500.00000     100.00000      30.00000  
fld0102              500.00000     100.00000      30.00000  
fld0103              500.00000     100.00000      30.00000  
fld0104              500.00000     100.00000      30.00000  
fld0105              500.00000     100.00000      30.00000  
fld0106              500.00000     100.00000      30.00000  
fld0107              500.00000     100.00000      30.00000  
fld0108              500.00000     100.00000      30.00000  
fld0109              500.00000     100.00000      30.00000  
fld0110              500.00000     100.00000      30.00000  
fld0111              500.00000     100.00000      30.00000  
fld0112              500.00000     100.00000      30.00000  
fld0113              500.00000     100.00000      30.00000  
fld0114              500.00000     100.00000      30.00000  
fld0115              500.00000     100.00000      30.00000  
fld0116              500.00000     100.00000      30.00000  
fld0117              500.00000     100.00000      30.00000  
fld0118              500.00000     100.00000      30.00000  
fld0119              500.00000     100.00000      30.00000  
fld0120              500.00000     100.00000      30.00000  
fld0121              500.00000     100.00000      30.00000  
fld0122              500.00000     100.00000      30.00000  
fld0123              500.00000     100.00000      30.00000  
fld0124              500.00000     100.00000      30.00000  
fld0125              500.00000     100.00000      30.00000  
fld0126              500.00000     100.00000      30.00000  
fld0127              500.00000     100.00000      30.00000  
fld0128              500.00000     100.00000      30.00000  
fld0129              500.00000     100.00000      30.00000  
fld0130              500.00000     100.00000      30.00000  
fld0131              500.00000     100.00000      30.00000  
fld0132              500.00000     100.00000      30.00000  
fld0133              500.00000     100.00000      30.00000  
fld0134              500.00000     100.00000      30.00000  
fld0135              500.00000     100.00000      30.00000  
fld0136              500.00000     100.00000      30.00000  
fld0137              500.00000     100.00000      30.00000  
fld0138              500.00000     100.00000      30.00000  
fld0139              500.00000     100.00000      30.00000  
fld0140              500.00000     100.00000      30.00000  
fld0141              500.00000     100.00000      30.00000  
fld0142              500.00000     100.00000      30.00000  
fld0143              500.00000     100.00000      30.00000  
fld0144              500.00000     100.00000      30.00000  
fld0145              500.00000     100.00000      30.00000  
fld0146              500.00000     100.00000      30.00000  
fld0147              500.00000     100.00000      30.00000  
fld0148              500.00000     100.00000      30.00000  
fld0149              500.00000     100.00000      30.00000  
fld0150              500.00000     100.00000      30.00000  
fld0151              500.00000     100.00000      30.00000  
fld0152              500.00000     100.00000      30.00000  
fld0153              500.00000     100.00000      30.00000  
fld0154              500.00000     100.00000      30.00000  
fld0155              500.00000     100.00000      30.00000  
fld0156              500.00000     100.00000      30.00000  
fld0157              500.00000     100.00000      30.00000  
fld0158              500.00000     100.00000      30.00000  
fld0159              500.00000     100.00000      30.00000  
fld0160              500.00000     100.00000      30.00000  
fld0161              500.00000     100.00000      30.00000  
fld0162              500.00000     100.00000      30.00000  
fld0163              500.00000     100.00000      30.00000  
fld0164              500.00000     100.00000      30.00000  
fld0165              500.00000     100.00000      30.00000  
fld0166              500.00000     100.00000      30.00000  
fld0167              500.00000     100.00000      30.00000  
fld0168              500.00000     100.00000      30.00000  
fld0169              500.00000     100.00000      30.00000  
fld0170              500.00000     100.00000      30.00000  
fld0171              500.00000     100.00000      30.00000  
fld0172              500.00000     100.00000      30.00000  
fld0173              500.00000     100.00000      30.00000  
fld0174              500.00000     100.00000      30.00000  
fld0175              500.00000     100.00000      30.00000  
fld0176              500.00000     100.00000      30.00000  
fld0177              500.00000     100.00000      30.00000  
fld0178              500.00000     100.00000      30.00000  
fld0179              500.00000     100.00000      30.00000  
fld0180              500.00000     100.00000      30.00000  
fld0181              500.00000     100.00000      30.00000  
fld0182              500.00000     100.00000      30.00000  
fld0183              500.00000     100.00000      30.00000  
fld0184              500.00000     100.00000      30.00000  
fld0185              500.00000     100.00000      30.00000  
fld0186              500.00000     100.00000      30.00000  
fld0187              500.00000     100.00000      30.00000  
fld0188              500.00000     100.00000      30.00000  
fld0189              500.00000     100.00000      30.00000  
fld0190              500.00000     100.00000      30.00000  
fld0191              500.00000     100.00000      30.00000  
fld0192              500.00000     100.00000      30.00000  
fld0193              500.00000     100.00000      30.00000  
fld0194              500.00000     100.00000      30.00000  
fld0195              500.00000     100.00000      30.00000  
fld0196              500.00000     100.00000      30.00000  
fld0197              500.00000     100.00000      30.00000  
fld0198              500.00000     100.00000      30.00000  
fld0199              500.00000     100.00000      30.00000  
fld0200              500.00000     100.00000      30.00000  
fld0201              500.00000     100.00000      30.00000  
fld0202              500.00000     100.00000      30.00000  
fld0203              500.00000     100.00000      30.00000  
fld0204              500.00000     100.00000      30.00000  
fld0205              500.00000     100.00000      30.00000  
fld0206              500.00000     100.00000      30.00000  
fld0207              500.00000     100.00000      30.00000  
fld0208              500.00000     100.00000      30.00000  
fld0209              500.00000     100.00000      30.00000  
fld0210              500.00000     100.00000      30.00000  
fld0211              500.00000     100.00000      30.00000  
fld0212              500.00000     100.00000      30.00000  
fld0213              500.00000     100.00000      30.00000  
fld0214              500.00000     100.00000      30.00000  
fld0215              500.00000     100.00000      30.00000  
fld0216              500.00000     100.00000      30.00000  
fld0217              500.00000     100.00000      30.00000  
fld0218              500.00000     100.00000      30.00000  
fld0219              500.00000     100.00000      30.00000  
fld0220              500.00000     100.00000      30.00000  
fld0221              500.00000     100.00000      30.00000  
fld0222              500.00000     100.00000      30.00000  
fld0223              500.00000     100.00000      30.00000  
fld0224              500.00000     100.00000      30.00000  
fld0225              500.00000     100.00000      30.00000  
fld0226              500.00000     100.00000      30.00000  
fld0227              500.00000     100.00000      30.00000  
fld0228              500.00000     100.00000      30.00000  
fld0229              500.00000     100.00000      30.00000  
fld0230              500.00000     100.00000      30.00000  
fld0231              500.00000     100.00000      30.00000  
fld0232              500.00000     100.00000      30.00000  
fld0233              500.00000     100.00000      30.00000  
fld0234              500.00000     100.00000      30.00000  
fld0235              500.00000     100.00000      30.00000  
fld0236              500.00000     100.00000      30.00000  
fld0237              500.00000     100.00000      30.00000  
fld0238              500.00000     100.00000      30.00000  
fld0239              500.00000     100.00000      30.00000  
fld0240              500.00000     100.00000      30.00000  
fld0241              500.00000     100.00000      30.00000  
fld0242              500.00000     100.00000      30.00000  
fld0243              500.00000     100.00000      30.00000  
fld0244              500.00000     100.00000      30.00000  
fld0245              500.00000     100.00000      30.00000  
fld0246              500.00000     100.00000      30.00000  
fld0247              500.00000     100.00000      30.00000  
fld0248              500.00000     100.00000      30.00000  
fld0249              500.00000     100.00000      30.00000  
fld0250              500.00000     100.00000      30.00000  
fld0251              500.00000     100.00000      30.00000  
fld0252              500.00000     100.00000      30.00000  
fld0253              500.00000     100.00000      30.00000  
fld0254              500.00000     100.00000      30.00000  
fld0255              500.00000     100.00000      30.00000  
fld0256              500.00000     100.00000      30.00000  
fld0257              500.00000     100.00000      30.00000  
fld0258              500.00000     100.00000      30.00000  
fld0259              500.00000     100.00000      30.00000  
fld0260              500.00000     100.00000      30.00000  
fld0261              500.00000     100.00000      30.00000  
fld0262              500.00000     100.00000      30.00000  
fld0263              500.00000     100.00000      30.00000  
fld0264              500.00000     100.00000      30.00000  
fld0265              500.00000     100.00000      30.00000  
fld0266              500.00000     100.00000      30.00000  
fld0267              500.00000     100.00000      30.00000  
fld0268              500.00000     100.00000      30.00000  
fld0269              500.00000     100.00000      30.00000  
fld0270              500.00000     100.00000      30.00000  
fld0271              500.00000     100.00000      30.00000  
fld0272              500.00000     100.00000      30.00000  
fld0273              500.00000     100.00000      30.00000  
fld0274              500.00000     100.00000      30.00000  
fld0275              500.00000     100.00000      30.00000  
fld0276              500.00000     100.00000      30.00000  
fld0277              500.00000     100.00000      30.00000  
fld0278              500.00000     100.00000      30.00000  
fld0279              500.00000     100.00000      30.00000  
fld0280              500.00000     100.00000      30.00000  
fld0281              500.00000     100.00000      30.00000  
fld0282              500.00000     100.00000      30.00000  
fld0283              500.00000     100.00000      30.00000  
fld0284              500.00000     100.00000      30.00000  
fld0285              500.00000     100.00000      30.00000  
fld0286              500.00000     100.00000      30.00000  
fld0287              500.00000     100.00000      30.00000  
fld0288              500.00000     100.00000      30.00000  
fld0289              500.00000     100.00000      30.00000  
fld0290              500.00000     100.00000      30.00000  
fld0291              500.00000     100.00000      30.00000  
fld0292              500.00000     100.00000      30.00000  
fld0293              500.00000     100.00000      30.00000  
fld0294              500.00000     100.00000      30.00000  
fld0295              500.00000     100.00000      30.00000  
fld0296              500.00000     100.00000      30.00000  
fld0297              500.00000     100.00000      30.00000  
fld0298              500.00000     100.00000      30.00000  
fld0299              500.00000     100.00000      30.00000  
fld0300              500.00000     100.00000      30.00000  
fld0301              500.00000     100.00000      30.00000  
fld0302              500.00000     100.00000      30.00000  
fld0303              500.00000     100.00000      30.00000  
fld0304              500.00000     100.00000      30.00000  
fld0305              500.00000     100.00000      30.00000  
fld0306              500.00000     100.00000      30.00000  
fld0307              500.00000     100.00000      30.00000  
fld0308              500.00000     100.00000      30.00000  
fld0309              500.00000     100.00000      30.00000  
fld0310              500.00000     100.00000      30.00000  
fld0311              500.00000     100.00000      30.00000  
fld0312              500.00000     100.00000      30.00000  
fld0313              500.00000     100.00000      30.00000  
fld0314              500.00000     100.00000      30.00000  
fld0315              500.00000     100.00000      30.00000  
fld0316              500.00000     100.00000      30.00000  
fld0317              500.00000     100.00000      30.00000  
fld0318              500.00000     100.00000      30.00000  
fld0319              500.00000     100.00000      30.00000  
fld0320              500.00000     100.00000      30.00000  
fld0321              500.00000     100.00000      30.00000  
fld0322              500.00000     100.00000      30.00000  
fld0323              500.00000     100.00000      30.00000  
fld0324              500.00000     100.00000      30.00000  
fld0325              500.00000     100.00000      30.00000  
fld0326              500.00000     100.00000      30.00000  
fld0327              500.00000     100.00000      30.00000  
fld0328              500.00000     100.00000      30.00000  
fld0329              500.00000     100.00000      30.00000  
fld0330              500.00000     100.00000      30.00000  
fld0331              500.00000     100.00000      30.00000  
fld0332              500.00000     100.00000      30.00000  
fld0333              500.00000     100.00000      30.00000  
fld0334              500.00000     100.00000      30.00000  
fld0335              500.00000     100.00000      30.00000  
fld0336              500.00000     100.00000      30.00000  
fld0337              500.00000     100.00000      30.00000  
fld0338              500.00000     100.00000      30.00000  
fld0339              500.00000     100.00000      30.00000  
fld0340              500.00000     100.00000      30.00000  
fld0341              500.00000     100.00000      30.00000  
fld0342              500.00000     100.00000      30.00000  
fld0343              500.00000     100.00000      30.00000  
fld0344              500.00000     100.00000      30.00000  
fld0345              500.00000     100.00000      30.00000  
fld0346              500.00000     100.00000      30.00000  
fld0347              500.00000     100.00000      30.00000  
fld0348              500.00000     100.00000      30.00000  
fld0349              500.00000     100.00000      30.00000  
fld0350              500.00000     100.00000      30.00000  
fld0351              500.00000     100.00000      30.00000  
fld0352              500.00000     100.00000      30.00000  
fld0353              500.00000     100.00000      30.00000  
fld0354              500.00000     100.00000      30.00000  
fld0355              500.00000     100.00000      30.00000  
fld0356              500.00000     100.00000      30.00000  
fld0357              500.00000     100.00000      30.00000  
fld0358              500.00000     100.00000      30.00000  
fld0359              500.00000     100.00000      30.00000  
fld0360              500.00000     100.00000      30.00000  
fld0361              500.00000     100.00000      30.00000  
fld0362              500.00000     100.00000      30.00000  
fld0363              500.00000     100.00000      30.00000  
fld0364              500.00000     100.00000      30.00000  
fld0365              500.00000     100.00000      30.00000  
fld0366              500.00000     100.00000      30.00000  
fld0367              500.00000     100.00000      30.00000  
fld0368              500.00000     100.00000      30.00000  
fld0369              500.00000     100.00000      30.00000  
fld0370              500.00000     100.00000      30.00000  
fld0371              500.00000     100.00000      30.00000  
fld0372              500.00000     100.00000      30.00000  
fld0373              500.00000     100.00000      30.00000  
fld0374              500.00000     100.00000      30.00000  
fld0375              500.00000     100.00000      30.00000  
fld0376              500.00000     100.00000      30.00000  
fld0377              500.00000     100.00000      30.00000  
fld0378              500.00000     100.00000      30.00000  
fld0379              500.00000     100.00000      30.00000  
fld0380              500.00000     100.00000      30.00000  
fld0381              500.00000     100.00000      30.00000  
fld0382              500.00000     100.00000      30.00000  
fld0383              500.00000     100.00000      30.00000  
fld0384              500.00000     100.00000      30.00000  
fld0385              500.00000     100.00000      30.00000  
fld0386              500.00000     100.00000      30.00000  
fld0387              500.00000     100.00000      30.00000  
fld0388              500.00000     100.00000      30.00000  
fld0389              500.00000     100.00000      30.00000  
fld0390              500.00000     100.00000      30.00000  
fld0391              500.00000     100.00000      30.00000  
fld0392              500.00000     100.00000      30.00000  
fld0393              500.00000     100.00000      30.00000  
fld0394              500.00000     100.00000      30.00000  
fld0395              500.00000     100.00000      30.00000  
fld0396              500.00000     100.00000      30.00000  
fld0397              500.00000     100.00000      30.00000  
fld0398              500.00000     100.00000      30.00000  
fld0399              500.00000     100.00000      30.00000  
fld0400              500.00000     100.00000      30.00000  
fld0401              500.00000     100.00000      30.00000  
fld0402              500.00000     100.00000      30.00000  
fld0403              500.00000     100.00000      30.00000  
fld0404              500.00000     100.00000      30.00000  
fld0405              500.00000     100.00000      30.00000  
fld0406              500.00000     100.00000      30.00000  
fld0407              500.00000     100.00000      30.00000  
fld0408              500.00000     100.00000      30.00000  
fld0409              500.00000     100.00000      30.00000  
fld0410              500.00000     100.00000      30.00000  
fld0411              500.00000     100.00000      30.00000  
fld0412              500.00000     100.00000      30.00000  
fld0413              500.00000     100.00000      30.00000  
fld0414              500.00000     100.00000      30.00000  
fld0415              500.00000     100.00000      30.00000  
fld0416              500.00000     100.00000      30.00000  
fld0417              500.00000     100.00000      30.00000  
fld0418              500.00000     100.00000      30.00000  
fld0419              500.00000     100.00000      30.00000  
fld0420              500.00000     100.00000      30.00000  
fld0421              500.00000     100.00000      30.00000  
fld0422              500.00000     100.00000      30.00000  
fld0423              500.00000     100.00000      30.00000  
fld0424              500.00000     100.00000      30.00000  
fld0425              500.00000     100.00000      30.00000  
fld0426              500.00000     100.00000      30.00000  
fld0427              500.00000     100.00000      30.00000  
fld0428              500.00000     100.00000      30.00000  
fld0429              500.00000     100.00000      30.00000  
fld0430              500.00000     100.00000      30.00000  
fld0431              500.00000     100.00000      30.00000  
fld0432              500.00000     100.00000      30.00000  
fld0433              500.00000     100.00000      30.00000  
fld0434              500.00000     100.00000      30.00000  
fld0435              500.00000     100.00000      30.00000  
fld0436              500.00000     100.00000      30.00000  
fld0437              500.00000     100.00000      30.00000  
fld0438              500.00000     100.00000      30.00000  
fld0439              500.00000     100.00000      30.00000  
fld0440              500.00000     100.00000      30.00000  
fld0441              500.00000     100.00000      30.00000  
fld0442              500.00000     100.00000      30.00000  
fld0443              500.00000     100.00000      30.00000  
fld0444              500.00000     100.00000      30.00000  
fld0445              500.00000     100.00000      30.00000  
fld0446              500.00000     100.00000      30.00000  
fld0447              500.00000     100.00000      30.00000  
fld0448              500.00000     100.00000      30.00000  
fld0449              500.00000     100.00000      30.00000  
fld0450              500.00000     100.00000      30.00000  
fld0451              500.00000     100.00000      30.00000  
fld0452              500.00000     100.00000      30.00000  
fld0453              500.00000     100.00000      30.00000  
fld0454              500.00000     100.00000      30.00000  
fld0455              500.00000     100.00000      30.00000  
fld0456              500.00000     100.00000      30.00000  
fld0457              500.00000     100.00000      30.00000  
fld0458              500.00000     100.00000      30.00000  
fld0459              500.00000     100.00000      30.00000  
fld0460              500.00000     100.00000      30.00000  
fld0461              500.00000     100.00000      30.00000  
fld0462              500.00000     100.00000      30.00000  
fld0463              500.00000     100.00000      30.00000  
fld0464              500.00000     100.00000      30.00000  
fld0465              500.00000     100.00000      30.00000  
fld0466              500.00000     100.00000      30.00000  
fld0467              500.00000     100.00000      30.00000  
fld0468              500.00000     100.00000      30.00000  
fld0469              500.00000     100.00000      30.00000  
fld0470              500.00000     100.00000      30.00000  
fld0471              500.00000     100.00000      30.00000  
fld0472              500.00000     100.00000      30.00000  
fld0473              500.00000     100.00000      30.00000  
fld0474              500.00000     100.00000      30.00000  
fld0475              500.00000     100.00000      30.00000  
fld0476              500.00000     100.00000      30.00000  
fld0477              500.00000     100.00000      30.00000  
fld0478              500.00000     100.00000      30.00000  
fld0479              500.00000     100.00000      30.00000  
fld0480              500.00000     100.00000      30.00000  
fld0481              500.00000     100.00000      30.00000  
fld0482              500.00000     100.00000      30.00000  
fld0483              500.00000     100.00000      30.00000  
fld0484              500.00000     100.00000      30.00000  
fld0485              500.00000     100.00000      30.00000  
fld0486              500.00000     100.00000      30.00000  
fld0487              500.00000     100.00000      30.00000  
fld0488              500.00000     100.00000      30.00000  
fld0489              500.00000     100.00000      30.00000  