hmd.cli: Relative humidity file names - file written by SWATprepR R package 2024-08-29 12:40:31
filename
sta_id1.hmd
sta_id10.hmd
sta_id11.hmd
sta_id12.hmd
sta_id13.hmd
sta_id14.hmd
sta_id15.hmd
sta_id16.hmd
sta_id17.hmd
sta_id18.hmd
sta_id19.hmd
sta_id2.hmd
sta_id3.hmd
sta_id4.hmd
sta_id5.hmd
sta_id6.hmd
sta_id7.hmd
sta_id8.hmd
sta_id9.hmd
