hru-data.hru: written by SWAT+ editor v2.1.0 on 2023-05-02 16:02 for SWAT+ rev.60.5.4 and edited with SWATfarmR 2.0.5 on 2024-03-18 16:28:27
      id  name                          topo             hydro              soil            lu_mgt   soil_plant_init         surf_stor              snow             field
       1  hru0001                topohru0001           hyd0001             HPJ29    field_1040_lum      spla_hru0001              null           snow001              null
       2  hru0002                topohru0002           hyd0002             HPJ47  fld_1041_drn_lum      spla_hru0002              null           snow001              null
       3  hru0003                topohru0003           hyd0003             HPJ47  fld_1042_drn_lum      spla_hru0003              null           snow001              null
       4  hru0004                topohru0004           hyd0004             HPJ29    field_1039_lum      spla_hru0004              null           snow001              null
       5  hru0005                topohru0005           hyd0005             HPJ34    field_1037_lum      spla_hru0005              null           snow001              null
       6  hru0006                topohru0006           hyd0006             HPJ34    field_1038_lum      spla_hru0006              null           snow001              null
       7  hru0007                topohru0007           hyd0007             HPJ37    field_1036_lum      spla_hru0007              null           snow001              null
       8  hru0008                topohru0008           hyd0008             HPJ34    field_1035_lum      spla_hru0008              null           snow001              null
       9  hru0009                topohru0009           hyd0009             HPJ32    field_1034_lum      spla_hru0009              null           snow001              null
      10  hru0010                topohru0010           hyd0010             HPJ29    field_1033_lum      spla_hru0010              null           snow001              null
      11  hru0011                topohru0011           hyd0011             HPJ29    field_1031_lum      spla_hru0011              null           snow001              null
      12  hru0012                topohru0012           hyd0012             HPJ29  fld_1032_drn_lum      spla_hru0012              null           snow001              null
      13  hru0013                topohru0013           hyd0013             HPJ29    field_1029_lum      spla_hru0013              null           snow001              null
      14  hru0014                topohru0014           hyd0014             HPJ29    field_1030_lum      spla_hru0014              null           snow001              null
      15  hru0015                topohru0015           hyd0015             HPJ29    field_1027_lum      spla_hru0015              null           snow001              null
      16  hru0016                topohru0016           hyd0016             HPJ29    field_1028_lum      spla_hru0016              null           snow001              null
      17  hru0017                topohru0017           hyd0017             HPJ29    field_1026_lum      spla_hru0017              null           snow001              null
      18  hru0018                topohru0018           hyd0018             HPJ29    field_1024_lum      spla_hru0018              null           snow001              null
      19  hru0019                topohru0019           hyd0019             HPJ29  fld_1025_drn_lum      spla_hru0019              null           snow001              null
      20  hru0020                topohru0020           hyd0020             HPJ29    field_1016_lum      spla_hru0020              null           snow001              null
      21  hru0021                topohru0021           hyd0021             HPJ29    field_1017_lum      spla_hru0021              null           snow001              null
      22  hru0022                topohru0022           hyd0022             HPJ29    field_1018_lum      spla_hru0022              null           snow001              null
      23  hru0023                topohru0023           hyd0023             HPJ29    field_1019_lum      spla_hru0023              null           snow001              null
      24  hru0024                topohru0024           hyd0024             HPJ29    field_1020_lum      spla_hru0024              null           snow001              null
      25  hru0025                topohru0025           hyd0025             HPJ29    field_1021_lum      spla_hru0025              null           snow001              null
      26  hru0026                topohru0026           hyd0026             HPJ29    field_1022_lum      spla_hru0026              null           snow001              null
      27  hru0027                topohru0027           hyd0027             HPJ29    field_1023_lum      spla_hru0027              null           snow001              null
      28  hru0028                topohru0028           hyd0028             HPJ29    field_1015_lum      spla_hru0028              null           snow001              null
      29  hru0029                topohru0029           hyd0029             HPJ29    field_1014_lum      spla_hru0029              null           snow001              null
      30  hru0030                topohru0030           hyd0030             HPJ29    field_1013_lum      spla_hru0030              null           snow001              null
      31  hru0031                topohru0031           hyd0031             HPJ29    field_1012_lum      spla_hru0031              null           snow001              null
      32  hru0032                topohru0032           hyd0032             HPJ34    field_1011_lum      spla_hru0032              null           snow001              null
      33  hru0033                topohru0033           hyd0033             HPJ29     field_998_lum      spla_hru0033              null           snow001              null
      34  hru0034                topohru0034           hyd0034             HPJ29   fld_999_drn_lum      spla_hru0034              null           snow001              null
      35  hru0035                topohru0035           hyd0035             HPJ29  fld_1000_drn_lum      spla_hru0035              null           snow001              null
      36  hru0036                topohru0036           hyd0036             HPJ29    field_1001_lum      spla_hru0036              null           snow001              null
      37  hru0037                topohru0037           hyd0037             HPJ29  fld_1002_drn_lum      spla_hru0037              null           snow001              null
      38  hru0038                topohru0038           hyd0038             HPJ29    field_1003_lum      spla_hru0038              null           snow001              null
      39  hru0039                topohru0039           hyd0039             HPJ29    field_1004_lum      spla_hru0039              null           snow001              null
      40  hru0040                topohru0040           hyd0040             HPJ29    field_1005_lum      spla_hru0040              null           snow001              null
      41  hru0041                topohru0041           hyd0041             HPJ29  fld_1006_drn_lum      spla_hru0041              null           snow001              null
      42  hru0042                topohru0042           hyd0042             HPJ29    field_1007_lum      spla_hru0042              null           snow001              null
      43  hru0043                topohru0043           hyd0043             HPJ29    field_1008_lum      spla_hru0043              null           snow001              null
      44  hru0044                topohru0044           hyd0044             HPJ29  fld_1009_drn_lum      spla_hru0044              null           snow001              null
      45  hru0045                topohru0045           hyd0045             HPJ29  fld_1010_drn_lum      spla_hru0045              null           snow001              null
      46  hru0046                topohru0046           hyd0046             HPJ50     field_992_lum      spla_hru0046              null           snow001              null
      47  hru0047                topohru0047           hyd0047             HPJ50     field_993_lum      spla_hru0047              null           snow001              null
      48  hru0048                topohru0048           hyd0048             HPJ29     field_994_lum      spla_hru0048              null           snow001              null
      49  hru0049                topohru0049           hyd0049             HPJ29     field_995_lum      spla_hru0049              null           snow001              null
      50  hru0050                topohru0050           hyd0050             HPJ50   fld_996_drn_lum      spla_hru0050              null           snow001              null
      51  hru0051                topohru0051           hyd0051             HPJ50   fld_997_drn_lum      spla_hru0051              null           snow001              null
      52  hru0052                topohru0052           hyd0052             HPJ29     field_991_lum      spla_hru0052              null           snow001              null
      53  hru0053                topohru0053           hyd0053             HPJ37     field_989_lum      spla_hru0053              null           snow001              null
      54  hru0054                topohru0054           hyd0054             HPJ34     field_990_lum      spla_hru0054              null           snow001              null
      55  hru0055                topohru0055           hyd0055             HPJ34     field_988_lum      spla_hru0055              null           snow001              null
      56  hru0056                topohru0056           hyd0056             HPJ37     field_987_lum      spla_hru0056              null           snow001              null
      57  hru0057                topohru0057           hyd0057             HPJ29     field_967_lum      spla_hru0057              null           snow001              null
      58  hru0058                topohru0058           hyd0058             HPJ68     field_968_lum      spla_hru0058              null           snow001              null
      59  hru0059                topohru0059           hyd0059             HPJ29   fld_969_drn_lum      spla_hru0059              null           snow001              null
      60  hru0060                topohru0060           hyd0060             HPJ29   fld_970_drn_lum      spla_hru0060              null           snow001              null
      61  hru0061                topohru0061           hyd0061             HPJ29   fld_971_drn_lum      spla_hru0061              null           snow001              null
      62  hru0062                topohru0062           hyd0062             HPJ29     field_972_lum      spla_hru0062              null           snow001              null
      63  hru0063                topohru0063           hyd0063             HPJ47     field_973_lum      spla_hru0063              null           snow001              null
      64  hru0064                topohru0064           hyd0064             HPJ47     field_974_lum      spla_hru0064              null           snow001              null
      65  hru0065                topohru0065           hyd0065             HPJ47     field_975_lum      spla_hru0065              null           snow001              null
      66  hru0066                topohru0066           hyd0066             HPJ47     field_976_lum      spla_hru0066              null           snow001              null
      67  hru0067                topohru0067           hyd0067             HPJ47     field_977_lum      spla_hru0067              null           snow001              null
      68  hru0068                topohru0068           hyd0068             HPJ47     field_978_lum      spla_hru0068              null           snow001              null
      69  hru0069                topohru0069           hyd0069             HPJ29   fld_979_drn_lum      spla_hru0069              null           snow001              null
      70  hru0070                topohru0070           hyd0070             HPJ47   fld_980_drn_lum      spla_hru0070              null           snow001              null
      71  hru0071                topohru0071           hyd0071             HPJ29   fld_981_drn_lum      spla_hru0071              null           snow001              null
      72  hru0072                topohru0072           hyd0072             HPJ29     field_982_lum      spla_hru0072              null           snow001              null
      73  hru0073                topohru0073           hyd0073             HPJ47     field_983_lum      spla_hru0073              null           snow001              null
      74  hru0074                topohru0074           hyd0074             HPJ29   fld_984_drn_lum      spla_hru0074              null           snow001              null
      75  hru0075                topohru0075           hyd0075             HPJ29   fld_985_drn_lum      spla_hru0075              null           snow001              null
      76  hru0076                topohru0076           hyd0076             HPJ29   fld_986_drn_lum      spla_hru0076              null           snow001              null
      77  hru0077                topohru0077           hyd0077             HPJ29     field_964_lum      spla_hru0077              null           snow001              null
      78  hru0078                topohru0078           hyd0078             HPJ50     field_965_lum      spla_hru0078              null           snow001              null
      79  hru0079                topohru0079           hyd0079             HPJ50   fld_966_drn_lum      spla_hru0079              null           snow001              null
      80  hru0080                topohru0080           hyd0080             HPJ29     field_963_lum      spla_hru0080              null           snow001              null
      81  hru0081                topohru0081           hyd0081             HPJ32     field_956_lum      spla_hru0081              null           snow001              null
      82  hru0082                topohru0082           hyd0082             HPJ50     field_957_lum      spla_hru0082              null           snow001              null
      83  hru0083                topohru0083           hyd0083             HPJ50   fld_958_drn_lum      spla_hru0083              null           snow001              null
      84  hru0084                topohru0084           hyd0084             HPJ50   fld_959_drn_lum      spla_hru0084              null           snow001              null
      85  hru0085                topohru0085           hyd0085             HPJ29     field_960_lum      spla_hru0085              null           snow001              null
      86  hru0086                topohru0086           hyd0086             HPJ29     field_955_lum      spla_hru0086              null           snow001              null
      87  hru0087                topohru0087           hyd0087             HPJ29     field_954_lum      spla_hru0087              null           snow001              null
      88  hru0088                topohru0088           hyd0088             HPJ29     field_953_lum      spla_hru0088              null           snow001              null
      89  hru0089                topohru0089           hyd0089             HPJ29     field_952_lum      spla_hru0089              null           snow001              null
      90  hru0090                topohru0090           hyd0090             HPJ29     field_951_lum      spla_hru0090              null           snow001              null
      91  hru0091                topohru0091           hyd0091             HPJ32     field_961_lum      spla_hru0091              null           snow001              null
      92  hru0092                topohru0092           hyd0092             HPJ50   fld_962_drn_lum      spla_hru0092              null           snow001              null
      93  hru0093                topohru0093           hyd0093             HPJ29     field_950_lum      spla_hru0093              null           snow001              null
      94  hru0094                topohru0094           hyd0094             HPJ29     field_923_lum      spla_hru0094              null           snow001              null
      95  hru0095                topohru0095           hyd0095             HPJ29     field_924_lum      spla_hru0095              null           snow001              null
      96  hru0096                topohru0096           hyd0096             HPJ29   fld_925_drn_lum      spla_hru0096              null           snow001              null
      97  hru0097                topohru0097           hyd0097             HPJ29     field_926_lum      spla_hru0097              null           snow001              null
      98  hru0098                topohru0098           hyd0098             HPJ29   fld_927_drn_lum      spla_hru0098              null           snow001              null
      99  hru0099                topohru0099           hyd0099             HPJ29     field_928_lum      spla_hru0099              null           snow001              null
     100  hru0100                topohru0100           hyd0100             HPJ29     field_929_lum      spla_hru0100              null           snow001              null
     101  hru0101                topohru0101           hyd0101             HPJ29     field_930_lum      spla_hru0101              null           snow001              null
     102  hru0102                topohru0102           hyd0102             HPJ29     field_931_lum      spla_hru0102              null           snow001              null
     103  hru0103                topohru0103           hyd0103             HPJ50     field_932_lum      spla_hru0103              null           snow001              null
     104  hru0104                topohru0104           hyd0104             HPJ50     field_933_lum      spla_hru0104              null           snow001              null
     105  hru0105                topohru0105           hyd0105             HPJ50     field_934_lum      spla_hru0105              null           snow001              null
     106  hru0106                topohru0106           hyd0106             HPJ50     field_935_lum      spla_hru0106              null           snow001              null
     107  hru0107                topohru0107           hyd0107             HPJ50     field_936_lum      spla_hru0107              null           snow001              null
     108  hru0108                topohru0108           hyd0108             HPJ29   fld_937_drn_lum      spla_hru0108              null           snow001              null
     109  hru0109                topohru0109           hyd0109             HPJ29   fld_938_drn_lum      spla_hru0109              null           snow001              null
     110  hru0110                topohru0110           hyd0110             HPJ29   fld_939_drn_lum      spla_hru0110              null           snow001              null
     111  hru0111                topohru0111           hyd0111             HPJ29   fld_940_drn_lum      spla_hru0111              null           snow001              null
     112  hru0112                topohru0112           hyd0112             HPJ29     field_941_lum      spla_hru0112              null           snow001              null
     113  hru0113                topohru0113           hyd0113             HPJ29   fld_942_drn_lum      spla_hru0113              null           snow001              null
     114  hru0114                topohru0114           hyd0114             HPJ50   fld_943_drn_lum      spla_hru0114              null           snow001              null
     115  hru0115                topohru0115           hyd0115             HPJ29   fld_944_drn_lum      spla_hru0115              null           snow001              null
     116  hru0116                topohru0116           hyd0116             HPJ29     field_945_lum      spla_hru0116              null           snow001              null
     117  hru0117                topohru0117           hyd0117             HPJ29   fld_946_drn_lum      spla_hru0117              null           snow001              null
     118  hru0118                topohru0118           hyd0118             HPJ29   fld_947_drn_lum      spla_hru0118              null           snow001              null
     119  hru0119                topohru0119           hyd0119             HPJ29   fld_948_drn_lum      spla_hru0119              null           snow001              null
     120  hru0120                topohru0120           hyd0120             HPJ50   fld_949_drn_lum      spla_hru0120              null           snow001              null
     121  hru0121                topohru0121           hyd0121             HPJ29     field_918_lum      spla_hru0121              null           snow001              null
     122  hru0122                topohru0122           hyd0122             HPJ29     field_919_lum      spla_hru0122              null           snow001              null
     123  hru0123                topohru0123           hyd0123             HPJ29   fld_920_drn_lum      spla_hru0123              null           snow001              null
     124  hru0124                topohru0124           hyd0124             HPJ29   fld_921_drn_lum      spla_hru0124              null           snow001              null
     125  hru0125                topohru0125           hyd0125             HPJ29   fld_922_drn_lum      spla_hru0125              null           snow001              null
     126  hru0126                topohru0126           hyd0126             HPJ29     field_917_lum      spla_hru0126              null           snow001              null
     127  hru0127                topohru0127           hyd0127             HPJ29     field_915_lum      spla_hru0127              null           snow001              null
     128  hru0128                topohru0128           hyd0128             HPJ64   fld_916_drn_lum      spla_hru0128              null           snow001              null
     129  hru0129                topohru0129           hyd0129             HPJ29     field_896_lum      spla_hru0129              null           snow001              null
     130  hru0130                topohru0130           hyd0130             HPJ29     field_897_lum      spla_hru0130              null           snow001              null
     131  hru0131                topohru0131           hyd0131             HPJ29   fld_898_drn_lum      spla_hru0131              null           snow001              null
     132  hru0132                topohru0132           hyd0132             HPJ29     field_899_lum      spla_hru0132              null           snow001              null
     133  hru0133                topohru0133           hyd0133             HPJ32     field_900_lum      spla_hru0133              null           snow001              null
     134  hru0134                topohru0134           hyd0134             HPJ29     field_901_lum      spla_hru0134              null           snow001              null
     135  hru0135                topohru0135           hyd0135             HPJ29   fld_902_drn_lum      spla_hru0135              null           snow001              null
     136  hru0136                topohru0136           hyd0136             HPJ29   fld_903_drn_lum      spla_hru0136              null           snow001              null
     137  hru0137                topohru0137           hyd0137             HPJ29   fld_904_drn_lum      spla_hru0137              null           snow001              null
     138  hru0138                topohru0138           hyd0138             HPJ50   fld_905_drn_lum      spla_hru0138              null           snow001              null
     139  hru0139                topohru0139           hyd0139             HPJ50   fld_906_drn_lum      spla_hru0139              null           snow001              null
     140  hru0140                topohru0140           hyd0140             HPJ50   fld_907_drn_lum      spla_hru0140              null           snow001              null
     141  hru0141                topohru0141           hyd0141             HPJ32     field_908_lum      spla_hru0141              null           snow001              null
     142  hru0142                topohru0142           hyd0142             HPJ29   fld_909_drn_lum      spla_hru0142              null           snow001              null
     143  hru0143                topohru0143           hyd0143             HPJ29   fld_910_drn_lum      spla_hru0143              null           snow001              null
     144  hru0144                topohru0144           hyd0144             HPJ29   fld_911_drn_lum      spla_hru0144              null           snow001              null
     145  hru0145                topohru0145           hyd0145             HPJ29   fld_912_drn_lum      spla_hru0145              null           snow001              null
     146  hru0146                topohru0146           hyd0146             HPJ29     field_913_lum      spla_hru0146              null           snow001              null
     147  hru0147                topohru0147           hyd0147             HPJ29   fld_914_drn_lum      spla_hru0147              null           snow001              null
     148  hru0148                topohru0148           hyd0148             HPJ29     field_895_lum      spla_hru0148              null           snow001              null
     149  hru0149                topohru0149           hyd0149             HPJ29     field_893_lum      spla_hru0149              null           snow001              null
     150  hru0150                topohru0150           hyd0150             HPJ29   fld_894_drn_lum      spla_hru0150              null           snow001              null
     151  hru0151                topohru0151           hyd0151             HPJ29     field_889_lum      spla_hru0151              null           snow001              null
     152  hru0152                topohru0152           hyd0152             HPJ29     field_890_lum      spla_hru0152              null           snow001              null
     153  hru0153                topohru0153           hyd0153             HPJ29     field_891_lum      spla_hru0153              null           snow001              null
     154  hru0154                topohru0154           hyd0154             HPJ29     field_892_lum      spla_hru0154              null           snow001              null
     155  hru0155                topohru0155           hyd0155             HPJ29   fld_887_drn_lum      spla_hru0155              null           snow001              null
     156  hru0156                topohru0156           hyd0156             HPJ29   fld_888_drn_lum      spla_hru0156              null           snow001              null
     157  hru0157                topohru0157           hyd0157             HPJ29     field_877_lum      spla_hru0157              null           snow001              null
     158  hru0158                topohru0158           hyd0158             HPJ29     field_878_lum      spla_hru0158              null           snow001              null
     159  hru0159                topohru0159           hyd0159             HPJ50   fld_879_drn_lum      spla_hru0159              null           snow001              null
     160  hru0160                topohru0160           hyd0160             HPJ50   fld_880_drn_lum      spla_hru0160              null           snow001              null
     161  hru0161                topohru0161           hyd0161             HPJ50   fld_881_drn_lum      spla_hru0161              null           snow001              null
     162  hru0162                topohru0162           hyd0162             HPJ29     field_882_lum      spla_hru0162              null           snow001              null
     163  hru0163                topohru0163           hyd0163             HPJ29     field_883_lum      spla_hru0163              null           snow001              null
     164  hru0164                topohru0164           hyd0164             HPJ29   fld_884_drn_lum      spla_hru0164              null           snow001              null
     165  hru0165                topohru0165           hyd0165             HPJ50   fld_885_drn_lum      spla_hru0165              null           snow001              null
     166  hru0166                topohru0166           hyd0166             HPJ50   fld_886_drn_lum      spla_hru0166              null           snow001              null
     167  hru0167                topohru0167           hyd0167             HPJ29     field_876_lum      spla_hru0167              null           snow001              null
     168  hru0168                topohru0168           hyd0168             HPJ29     field_871_lum      spla_hru0168              null           snow001              null
     169  hru0169                topohru0169           hyd0169             HPJ29     field_872_lum      spla_hru0169              null           snow001              null
     170  hru0170                topohru0170           hyd0170             HPJ29     field_873_lum      spla_hru0170              null           snow001              null
     171  hru0171                topohru0171           hyd0171             HPJ29     field_874_lum      spla_hru0171              null           snow001              null
     172  hru0172                topohru0172           hyd0172             HPJ29     field_875_lum      spla_hru0172              null           snow001              null
     173  hru0173                topohru0173           hyd0173             HPJ29     field_870_lum      spla_hru0173              null           snow001              null