hru.con: rewritten by SWATprepR R package 2024-08-29 12:40:35 for SWAT+ rev.60.5.4
      id  name                gis_id          area           lat           lon          elev       hru               wst       cst      ovfl      rule   out_tot
       1  hru0001                  0       1.31073      49.63110      15.11567     516.88191         1     s49627n15107e         0         0         0         0
       2  hru0002                  0       2.20340      49.62992      15.11597     513.59376         2     s49627n15107e         0         0         0         0
       3  hru0003                  0       0.28745      49.62896      15.11642     512.03544         3     s49627n15107e         0         0         0         0
       4  hru0004                  0       0.42357      49.63160      15.11574     517.04753         4     s49627n15107e         0         0         0         0
       5  hru0005                  0      18.27255      49.62083      14.97821     595.38554         5     s49615n14969e         0         0         0         0
       6  hru0006                  0       0.25371      49.62114      14.97985     587.15549         6     s49615n14969e         0         0         0         0
       7  hru0007                  0      11.63701      49.62217      14.98377     571.59952         7     s49618n14997e         0         0         0         0
       8  hru0008                  0      12.69530      49.61768      14.97100     611.49248         8     s49615n14969e         0         0         0         0
       9  hru0009                  0       0.07076      49.65466      14.96512     542.54962         9     s49651n14962e         0         0         0         0
      10  hru0010                  0       3.17035      49.65434      14.96867     539.48908        10     s49651n14962e         0         0         0         0
      11  hru0011                  0       8.58067      49.63786      15.10132     498.87176        11     s49627n15107e         0         0         0         0
      12  hru0012                  0       2.11748      49.63754      15.09878     488.67942        12     s49627n15107e         0         0         0         0
      13  hru0013                  0       1.68191      49.63700      15.10597     516.71586        13     s49627n15107e         0         0         0         0
      14  hru0014                  0       0.39271      49.63740      15.10450     509.71303        14     s49627n15107e         0         0         0         0
      15  hru0015                  0       2.72511      49.63661      15.10941     533.39413        15     s49627n15107e         0         0         0         0
      16  hru0016                  0       0.99489      49.63627      15.11293     537.17645        16     s49627n15107e         0         0         0         0
      17  hru0017                  0       1.06309      49.63125      14.96563     498.33782        17     s49633n14966e         0         0         0         0
      18  hru0018                  0       0.71301      49.63282      14.96761     488.21123        18     s49633n14966e         0         0         0         0
      19  hru0019                  0       0.00839      49.63308      14.96668     486.72858        19     s49633n14966e         0         0         0         0
      20  hru0020                  0       0.02626      49.63251      14.96737     490.68016        20     s49633n14966e         0         0         0         0
      21  hru0021                  0       0.02056      49.63225      14.96802     489.25648        21     s49633n14966e         0         0         0         0
      22  hru0022                  0       0.06048      49.63281      14.96664     488.62103        22     s49633n14966e         0         0         0         0
      23  hru0023                  0       0.04003      49.63258      14.96720     490.25062        23     s49633n14966e         0         0         0         0
      24  hru0024                  0       0.05089      49.63243      14.96757     490.92220        24     s49633n14966e         0         0         0         0
      25  hru0025                  0       0.20606      49.63239      14.96718     490.81991        25     s49633n14966e         0         0         0         0
      26  hru0026                  0       0.06231      49.63268      14.96694     489.50008        26     s49633n14966e         0         0         0         0
      27  hru0027                  0       0.04641      49.63233      14.96784     490.41441        27     s49633n14966e         0         0         0         0
      28  hru0028                  0       0.95646      49.63208      14.96680     492.66348        28     s49633n14966e         0         0         0         0
      29  hru0029                  0       0.29127      49.63173      14.96638     494.64553        29     s49633n14966e         0         0         0         0
      30  hru0030                  0       0.22599      49.63063      14.96493     504.50061        30     s49633n14966e         0         0         0         0
      31  hru0031                  0       0.21212      49.63107      14.96631     497.13759        31     s49633n14966e         0         0         0         0
      32  hru0032                  0       3.48174      49.62414      14.97362     553.54498        32     s49615n14969e         0         0         0         0
      33  hru0033                  0      15.77262      49.63430      15.10684     514.52769        33     s49627n15107e         0         0         0         0
      34  hru0034                  0       0.17625      49.63249      15.10638     504.30792        34     s49627n15107e         0         0         0         0
      35  hru0035                  0       0.53697      49.63144      15.10717     501.51882        35     s49627n15107e         0         0         0         0
      36  hru0036                  0       8.45813      49.63481      15.10276     503.95998        36     s49627n15107e         0         0         0         0
      37  hru0037                  0       0.06633      49.63533      15.10140     495.73519        37     s49627n15107e         0         0         0         0
      38  hru0038                  0       0.32546      49.63657      15.10303     500.59230        38     s49627n15107e         0         0         0         0
      39  hru0039                  0       0.30892      49.63308      15.10254     499.60695        39     s49627n15107e         0         0         0         0
      40  hru0040                  0      14.84342      49.63422      15.11163     526.78304        40     s49627n15107e         0         0         0         0
      41  hru0041                  0       2.34445      49.63488      15.11431     529.61309        41     s49627n15107e         0         0         0         0
      42  hru0042                  0       0.92156      49.63587      15.09983     485.16440        42     s49627n15107e         0         0         0         0
      43  hru0043                  0       3.25233      49.63399      15.09995     490.65243        43     s49627n15107e         0         0         0         0
      44  hru0044                  0       3.74455      49.63512      15.09900     482.03303        44     s49627n15107e         0         0         0         0
      45  hru0045                  0       0.11909      49.63606      15.10060     488.30206        45     s49627n15107e         0         0         0         0
      46  hru0046                  0       0.01248      49.63683      15.09875     482.61631        46     s49627n15107e         0         0         0         0
      47  hru0047                  0       0.04994      49.63656      15.10110     491.30979        47     s49627n15107e         0         0         0         0
      48  hru0048                  0       0.15833      49.63636      15.10113     490.91078        48     s49627n15107e         0         0         0         0
      49  hru0049                  0       0.17053      49.63611      15.09894     479.10762        49     s49627n15107e         0         0         0         0
      50  hru0050                  0       0.60826      49.63658      15.09925     482.52135        50     s49627n15107e         0         0         0         0
      51  hru0051                  0       0.53424      49.63629      15.09959     482.32424        51     s49627n15107e         0         0         0         0
      52  hru0052                  0       0.18964      49.63348      15.11365     523.64523        52     s49627n15107e         0         0         0         0
      53  hru0053                  0       1.59905      49.62356      14.96967     565.01848        53     s49615n14969e         0         0         0         0
      54  hru0054                  0      29.95507      49.61938      14.96684     593.00142        54     s49615n14969e         0         0         0         0
      55  hru0055                  0      15.58828      49.62411      14.97679     569.31326        55     s49615n14969e         0         0         0         0
      56  hru0056                  0       8.70653      49.62552      14.96740     546.64163        56     s49633n14966e         0         0         0         0
      57  hru0057                  0       7.14753      49.62535      15.09297     495.01321        57     s49625n15079e         0         0         0         0
      58  hru0058                  0       0.03886      49.62346      15.09872     497.38241        58     s49627n15107e         0         0         0         0
      59  hru0059                  0       0.67962      49.62076      15.09712     510.66149        59     s49627n15107e         0         0         0         0
      60  hru0060                  0       1.32354      49.62017      15.09842     510.82485        60     s49627n15107e         0         0         0         0
      61  hru0061                  0      11.85540      49.62244      15.09742     505.54033        61     s49627n15107e         0         0         0         0
      62  hru0062                  0       6.27739      49.62380      15.09135     499.42238        62     s49625n15079e         0         0         0         0
      63  hru0063                  0       0.07016      49.61894      15.09800     508.46953        63     s49627n15107e         0         0         0         0
      64  hru0064                  0       0.10829      49.61801      15.09696     506.85921        64     s49627n15107e         0         0         0         0
      65  hru0065                  0       0.16725      49.61720      15.09407     502.72687        65     s49607n15083e         0         0         0         0
      66  hru0066                  0       0.01179      49.61734      15.09723     505.03600        66     s49627n15107e         0         0         0         0
      67  hru0067                  0       0.04044      49.61685      15.09576     502.14433        67     s49627n15107e         0         0         0         0
      68  hru0068                  0       0.04298      49.61682      15.09671     502.87239        68     s49627n15107e         0         0         0         0
      69  hru0069                  0      11.16664      49.62028      15.09401     507.97125        69     s49627n15107e         0         0         0         0
      70  hru0070                  0       6.53548      49.61820      15.09592     506.38449        70     s49627n15107e         0         0         0         0
      71  hru0071                  0       1.41911      49.62242      15.09374     506.90685        71     s49627n15107e         0         0         0         0
      72  hru0072                  0       0.97295      49.62501      15.09169     496.39949        72     s49625n15079e         0         0         0         0
      73  hru0073                  0       0.02819      49.61933      15.09805     509.27636        73     s49627n15107e         0         0         0         0
      74  hru0074                  0       0.51291      49.62069      15.09656     510.06321        74     s49627n15107e         0         0         0         0
      75  hru0075                  0       0.17180      49.61966      15.09774     509.95209        75     s49627n15107e         0         0         0         0
      76  hru0076                  0       0.68622      49.62250      15.09453     507.00083        76     s49627n15107e         0         0         0         0
      77  hru0077                  0      20.08795      49.62540      15.09891     499.04910        77     s49627n15107e         0         0         0         0
      78  hru0078                  0       0.03873      49.62346      15.10684     510.54302        78     s49627n15107e         0         0         0         0
      79  hru0079                  0       4.23901      49.62369      15.10464     509.39835        79     s49627n15107e         0         0         0         0
      80  hru0080                  0       2.54041      49.60292      15.09251     543.36003        80     s49607n15083e         0         0         0         0
      81  hru0081                  0       4.34933      49.64657      15.08517     445.51851        81     s49642n15076e         0         0         0         0
      82  hru0082                  0       0.07470      49.64432      15.09242     457.92178        82     s49642n15076e         0         0         0         0
      83  hru0083                  0       0.66732      49.64412      15.09156     453.73642        83     s49642n15076e         0         0         0         0
      84  hru0084                  0       0.03961      49.64394      15.09220     454.72267        84     s49642n15076e         0         0         0         0
      85  hru0085                  0       2.87798      49.64293      14.96180     523.50997        85     s49651n14962e         0         0         0         0
      86  hru0086                  0       9.43800      49.64092      14.96005     534.46628        86     s49633n14966e         0         0         0         0
      87  hru0087                  0       3.25534      49.64341      14.95437     554.97376        87     s49651n14962e         0         0         0         0
      88  hru0088                  0       1.15300      49.64284      14.95464     555.96631        88     s49651n14962e         0         0         0         0
      89  hru0089                  0       5.09936      49.64199      14.96052     533.23130        89     s49651n14962e         0         0         0         0
      90  hru0090                  0      10.48525      49.64118      14.95380     556.78117        90     s49651n14962e         0         0         0         0
      91  hru0091                  0      31.21506      49.64636      15.08722     456.90563        91     s49642n15076e         0         0         0         0
      92  hru0092                  0       0.54995      49.64441      15.09064     453.98377        92     s49642n15076e         0         0         0         0
      93  hru0093                  0       7.27328      49.64499      14.95465     554.54577        93     s49651n14962e         0         0         0         0
      94  hru0094                  0      23.79855      49.63894      14.95797     531.26003        94     s49633n14966e         0         0         0         0
      95  hru0095                  0       0.61688      49.63735      14.95547     524.01804        95     s49633n14966e         0         0         0         0
      96  hru0096                  0       3.70622      49.63828      14.96071     516.86421        96     s49633n14966e         0         0         0         0
      97  hru0097                  0       0.00958      49.63860      14.96590     512.02538        97     s49633n14966e         0         0         0         0
      98  hru0098                  0       1.94057      49.63841      14.95723     523.90450        98     s49633n14966e         0         0         0         0
      99  hru0099                  0       2.05995      49.63829      14.96845     504.73280        99     s49633n14966e         0         0         0         0
     100  hru0100                  0       0.44972      49.63828      14.96547     512.23394       100     s49633n14966e         0         0         0         0
     101  hru0101                  0       0.23047      49.63686      14.95511     522.07271       101     s49633n14966e         0         0         0         0
     102  hru0102                  0       0.49998      49.63592      14.96688     496.02315       102     s49633n14966e         0         0         0         0
     103  hru0103                  0       0.15271      49.63500      14.95858     500.07389       103     s49633n14966e         0         0         0         0
     104  hru0104                  0       0.35815      49.63520      14.95995     498.82050       104     s49633n14966e         0         0         0         0
     105  hru0105                  0       0.04856      49.63533      14.96148     497.13247       105     s49633n14966e         0         0         0         0
     106  hru0106                  0       0.10065      49.63529      14.96106     497.27073       106     s49633n14966e         0         0         0         0
     107  hru0107                  0       0.11963      49.63508      14.95900     499.59859       107     s49633n14966e         0         0         0         0
     108  hru0108                  0       6.20689      49.63748      14.96211     510.65328       108     s49633n14966e         0         0         0         0
     109  hru0109                  0       1.89081      49.63608      14.95924     504.94165       109     s49633n14966e         0         0         0         0
     110  hru0110                  0       6.02027      49.63621      14.96327     502.49063       110     s49633n14966e         0         0         0         0
     111  hru0111                  0       0.01110      49.63530      14.95870     501.72945       111     s49633n14966e         0         0         0         0
     112  hru0112                  0       5.61609      49.63717      14.96720     502.73045       112     s49633n14966e         0         0         0         0
     113  hru0113                  0       6.75348      49.63586      14.95662     509.48663       113     s49633n14966e         0         0         0         0
     114  hru0114                  0       0.28335      49.63541      14.96283     498.04131       114     s49633n14966e         0         0         0         0
     115  hru0115                  0       0.33705      49.63689      14.96281     506.62145       115     s49633n14966e         0         0         0         0
     116  hru0116                  0       0.05578      49.63725      14.96606     507.29216       116     s49633n14966e         0         0         0         0
     117  hru0117                  0       0.05658      49.63687      14.95855     510.06181       117     s49633n14966e         0         0         0         0
     118  hru0118                  0       0.18049      49.63627      14.95674     511.62257       118     s49633n14966e         0         0         0         0
     119  hru0119                  0       0.72834      49.63629      14.96007     504.10466       119     s49633n14966e         0         0         0         0
     120  hru0120                  0       0.07077      49.63539      14.95899     501.55910       120     s49633n14966e         0         0         0         0
     121  hru0121                  0       4.92433      49.63653      14.95184     531.91189       121     s49633n14966e         0         0         0         0
     122  hru0122                  0       1.89793      49.63362      14.94623     536.86886       122     s49633n14966e         0         0         0         0
     123  hru0123                  0      10.30489      49.63442      14.94971     524.51497       123     s49633n14966e         0         0         0         0
     124  hru0124                  0       4.58729      49.63521      14.95374     514.13758       124     s49633n14966e         0         0         0         0
     125  hru0125                  0       0.35623      49.63385      14.95135     514.32276       125     s49633n14966e         0         0         0         0
     126  hru0126                  0       5.46190      49.63553      14.97008     485.47987       126     s49633n14966e         0         0         0         0
     127  hru0127                  0       0.05851      49.63104      14.96480     501.54214       127     s49633n14966e         0         0         0         0
     128  hru0128                  0       5.23238      49.63227      14.96366     494.89531       128     s49633n14966e         0         0         0         0
     129  hru0129                  0       5.60656      49.63046      14.94919     536.13551       129     s49633n14966e         0         0         0         0
     130  hru0130                  0      13.10715      49.62924      14.95654     534.08458       130     s49633n14966e         0         0         0         0
     131  hru0131                  0       3.73068      49.62858      14.95216     535.82580       131     s49633n14966e         0         0         0         0
     132  hru0132                  0       3.59444      49.64202      15.08044     437.00427       132     s49642n15076e         0         0         0         0
     133  hru0133                  0       0.53062      49.63913      15.08547     471.34718       133     s49642n15076e         0         0         0         0
     134  hru0134                  0       0.10986      49.64158      15.08950     459.55466       134     s49642n15076e         0         0         0         0
     135  hru0135                  0       2.40568      49.64117      15.08803     455.91913       135     s49642n15076e         0         0         0         0
     136  hru0136                  0       2.52438      49.64226      15.08550     442.70339       136     s49642n15076e         0         0         0         0
     137  hru0137                  0       2.31081      49.64212      15.08892     451.90234       137     s49642n15076e         0         0         0         0
     138  hru0138                  0       0.49129      49.64354      15.09121     452.82964       138     s49642n15076e         0         0         0         0
     139  hru0139                  0       1.22604      49.64173      15.08833     450.00615       139     s49642n15076e         0         0         0         0
     140  hru0140                  0       0.03581      49.64283      15.08674     437.22321       140     s49642n15076e         0         0         0         0
     141  hru0141                  0      14.01926      49.63921      15.08913     476.66453       141     s49642n15076e         0         0         0         0
     142  hru0142                  0       0.77878      49.64269      15.08976     453.38553       142     s49642n15076e         0         0         0         0
     143  hru0143                  0       4.44444      49.64020      15.08854     468.50416       143     s49642n15076e         0         0         0         0
     144  hru0144                  0       1.23995      49.64307      15.09127     456.32379       144     s49642n15076e         0         0         0         0
     145  hru0145                  0       1.68701      49.64100      15.08583     457.10030       145     s49642n15076e         0         0         0         0
     146  hru0146                  0      17.75288      49.64127      15.08233     447.78832       146     s49642n15076e         0         0         0         0
     147  hru0147                  0       1.42350      49.64171      15.08446     448.04410       147     s49642n15076e         0         0         0         0
     148  hru0148                  0       4.33083      49.62919      14.96202     524.29676       148     s49633n14966e         0         0         0         0
     149  hru0149                  0       1.87513      49.62712      14.95569     543.97071       149     s49633n14966e         0         0         0         0
     150  hru0150                  0       0.57966      49.62744      14.95310     540.75087       150     s49633n14966e         0         0         0         0
     151  hru0151                  0       0.55922      49.62574      14.95500     549.37824       151     s49633n14966e         0         0         0         0
     152  hru0152                  0       4.98950      49.62561      14.95992     530.54581       152     s49633n14966e         0         0         0         0
     153  hru0153                  0      13.46485      49.62771      14.95871     535.11354       153     s49633n14966e         0         0         0         0
     154  hru0154                  0       3.50511      49.62622      14.95572     547.59247       154     s49633n14966e         0         0         0         0
     155  hru0155                  0       1.46852      49.63051      14.95090     531.63759       155     s49633n14966e         0         0         0         0
     156  hru0156                  0       1.66418      49.63043      14.95169     528.79311       156     s49633n14966e         0         0         0         0
     157  hru0157                  0      15.38327      49.64009      15.09606     489.69959       157     s49642n15076e         0         0         0         0
     158  hru0158                  0       6.01882      49.64547      15.09358     466.86062       158     s49642n15076e         0         0         0         0
     159  hru0159                  0       0.05529      49.64396      15.09316     459.20868       159     s49642n15076e         0         0         0         0
     160  hru0160                  0       0.20290      49.64321      15.09258     459.77397       160     s49642n15076e         0         0         0         0
     161  hru0161                  0       0.18693      49.64372      15.09308     458.75790       161     s49642n15076e         0         0         0         0
     162  hru0162                  0      12.05401      49.64251      15.09447     474.04757       162     s49642n15076e         0         0         0         0
     163  hru0163                  0       0.19949      49.64263      15.09544     472.41271       163     s49642n15076e         0         0         0         0
     164  hru0164                  0       0.36823      49.64334      15.09472     466.05169       164     s49642n15076e         0         0         0         0
     165  hru0165                  0       1.33963      49.64288      15.09356     464.94679       165     s49642n15076e         0         0         0         0
     166  hru0166                  0       0.56050      49.64323      15.09426     464.48055       166     s49642n15076e         0         0         0         0
     167  hru0167                  0       2.74599      49.62782      14.96257     519.84739       167     s49633n14966e         0         0         0         0
     168  hru0168                  0       2.80807      49.63252      15.09792     487.71029       168     s49627n15107e         0         0         0         0
     169  hru0169                  0       0.13657      49.63384      15.09006     473.54357       169     s49625n15079e         0         0         0         0
     170  hru0170                  0       0.32359      49.63352      15.08980     469.43878       170     s49625n15079e         0         0         0         0
     171  hru0171                  0      15.78020      49.63195      15.09731     492.27498       171     s49627n15107e         0         0         0         0
     172  hru0172                  0       0.39828      49.63286      15.09039     469.34758       172     s49625n15079e         0         0         0         0
     173  hru0173                  0       0.25044      49.62139      14.95351     565.91627       173     s49615n14969e         0         0         0         0
     174  hru0174                  0       3.94003      49.62301      14.95380     566.31887       174     s49615n14969e         0         0         0         0
     175  hru0175                  0       0.57293      49.62141      14.95203     574.38861       175     s49615n14969e         0         0         0         0
     176  hru0176                  0       0.21204      49.62841      14.94912     541.04576       176     s49633n14966e         0         0         0         0
     177  hru0177                  0      24.82114      49.62763      15.10438     513.13564       177     s49627n15107e         0         0         0         0
     178  hru0178                  0      26.55986      49.62941      15.09683     499.98074       178     s49627n15107e         0         0         0         0
     179  hru0179                  0       0.06138      49.62838      15.09371     478.60826       179     s49627n15107e         0         0         0         0
     180  hru0180                  0       1.69426      49.62974      15.09246     480.93696       180     s49627n15107e         0         0         0         0
     181  hru0181                  0       0.66852      49.62594      14.95383     550.99658       181     s49633n14966e         0         0         0         0
     182  hru0182                  0       0.44116      49.62697      14.95243     542.14271       182     s49633n14966e         0         0         0         0
     183  hru0183                  0      10.75775      49.62527      15.10909     517.42798       183     s49627n15107e         0         0         0         0
     184  hru0184                  0       0.77945      49.62370      15.10863     514.24078       184     s49627n15107e         0         0         0         0