landuse.lum: written by SWAT+ editor v2.1.0 on 2023-05-02 16:02 for SWAT+ rev.60.5.4, edited manually on 2023-05-30 15:28:39 and edited with SWATfarmR 2.0.5 on 2024-03-18 09:23:01
name                         cal_group          plnt_com               mgt               cn2         cons_prac             urban            urb_ro           ov_mann              tile               sep               vfs              grww               bmp
fld_1000_drn_lum                  null  fld_1000_drn_com  fld_1000_drn_mgt        rc_strow_g     up_down_slope              null              null    convtill_nores         mw24_1000              null              null              null              null
field_1001_lum                    null    field_1001_com    field_1001_mgt        rc_strow_g     up_down_slope              null              null    convtill_nores              null              null              null              null              null
fld_1002_drn_lum                  null  fld_1002_drn_com  fld_1002_drn_mgt        rc_strow_g     up_down_slope              null              null    convtill_nores         mw24_1000              null              null              null              null
field_1003_lum                    null    field_1003_com    field_1003_mgt        rc_strow_g     up_down_slope              null              null    convtill_nores              null              null              null              null              null
field_1004_lum                    null    field_1004_com    field_1004_mgt        rc_strow_g     up_down_slope              null              null    convtill_nores              null              null              null              null              null
field_1005_lum                    null    field_1005_com    field_1005_mgt        rc_strow_g     up_down_slope              null              null    convtill_nores              null              null              null              null              null
fld_1006_drn_lum                  null  fld_1006_drn_com  fld_1006_drn_mgt        rc_strow_g     up_down_slope              null              null    convtill_nores         mw24_1000              null              null              null              null
field_1007_lum                    null    field_1007_com    field_1007_mgt        rc_strow_g     up_down_slope              null              null    convtill_nores              null              null              null              null              null
field_1008_lum                    null    field_1008_com    field_1008_mgt        rc_strow_g     up_down_slope              null              null    convtill_nores              null              null              null              null              null
fld_1009_drn_lum                  null  fld_1009_drn_com  fld_1009_drn_mgt        rc_strow_g     up_down_slope              null              null    convtill_nores         mw24_1000              null              null              null              null
field_100_lum                     null     field_100_com     field_100_mgt        rc_strow_g     up_down_slope              null              null    convtill_nores              null              null              null              null              null
fld_1010_drn_lum                  null  fld_1010_drn_com  fld_1010_drn_mgt        rc_strow_g     up_down_slope              null              null    convtill_nores         mw24_1000              null              null              null              null
field_1011_lum                    null    field_1011_com    field_1011_mgt        rc_strow_g     up_down_slope              null              null    convtill_nores              null              null              null              null              null
field_1012_lum                    null    field_1012_com    field_1012_mgt        rc_strow_g     up_down_slope              null              null    convtill_nores              null              null              null              null              null
field_1013_lum                    null    field_1013_com    field_1013_mgt        rc_strow_g     up_down_slope              null              null    convtill_nores              null              null              null              null              null
field_1014_lum                    null    field_1014_com    field_1014_mgt        rc_strow_g     up_down_slope              null              null    convtill_nores              null              null              null              null              null
field_1015_lum                    null    field_1015_com    field_1015_mgt        rc_strow_g     up_down_slope              null              null    convtill_nores              null              null              null              null              null
field_1016_lum                    null    field_1016_com    field_1016_mgt        rc_strow_g     up_down_slope              null              null    convtill_nores              null              null              null              null              null
field_1017_lum                    null    field_1017_com    field_1017_mgt        rc_strow_g     up_down_slope              null              null    convtill_nores              null              null              null              null              null
field_1018_lum                    null    field_1018_com    field_1018_mgt        rc_strow_g     up_down_slope              null              null    convtill_nores              null              null              null              null              null
field_1019_lum                    null    field_1019_com    field_1019_mgt        rc_strow_g     up_down_slope              null              null    convtill_nores              null              null              null              null              null
fld_101_drn_lum                   null   fld_101_drn_com   fld_101_drn_mgt        rc_strow_g     up_down_slope              null              null    convtill_nores         mw24_1000              null              null              null              null
field_1020_lum                    null    field_1020_com    field_1020_mgt        rc_strow_g     up_down_slope              null              null    convtill_nores              null              null              null              null              null
field_1021_lum                    null    field_1021_com    field_1021_mgt        rc_strow_g     up_down_slope              null              null    convtill_nores              null              null              null              null              null
field_1022_lum                    null    field_1022_com    field_1022_mgt        rc_strow_g     up_down_slope              null              null    convtill_nores              null              null              null              null              null
field_1023_lum                    null    field_1023_com    field_1023_mgt        rc_strow_g     up_down_slope              null              null    convtill_nores              null              null              null              null              null
field_1024_lum                    null    field_1024_com    field_1024_mgt        rc_strow_g     up_down_slope              null              null    convtill_nores              null              null              null              null              null
fld_1025_drn_lum                  null  fld_1025_drn_com  fld_1025_drn_mgt        rc_strow_g     up_down_slope              null              null    convtill_nores         mw24_1000              null              null              null              null
field_1026_lum                    null    field_1026_com    field_1026_mgt        rc_strow_g     up_down_slope              null              null    convtill_nores              null              null              null              null              null
field_1027_lum                    null    field_1027_com    field_1027_mgt        rc_strow_g     up_down_slope              null              null    convtill_nores              null              null              null              null              null
field_1028_lum                    null    field_1028_com    field_1028_mgt        rc_strow_g     up_down_slope              null              null    convtill_nores              null              null              null              null              null
field_1029_lum                    null    field_1029_com    field_1029_mgt        rc_strow_g     up_down_slope              null              null    convtill_nores              null              null              null              null              null
field_102_lum                     null     field_102_com     field_102_mgt        rc_strow_g     up_down_slope              null              null    convtill_nores              null              null              null              null              null
field_1030_lum                    null    field_1030_com    field_1030_mgt        rc_strow_g     up_down_slope              null              null    convtill_nores              null              null              null              null              null
field_1031_lum                    null    field_1031_com    field_1031_mgt        rc_strow_g     up_down_slope              null              null    convtill_nores              null              null              null              null              null
fld_1032_drn_lum                  null  fld_1032_drn_com  fld_1032_drn_mgt        rc_strow_g     up_down_slope              null              null    convtill_nores         mw24_1000              null              null              null              null
field_1033_lum                    null    field_1033_com    field_1033_mgt        rc_strow_g     up_down_slope              null              null    convtill_nores              null              null              null              null              null
field_1034_lum                    null    field_1034_com    field_1034_mgt        rc_strow_g     up_down_slope              null              null    convtill_nores              null              null              null              null              null
field_1035_lum                    null    field_1035_com    field_1035_mgt        rc_strow_g     up_down_slope              null              null    convtill_nores              null              null              null              null              null
field_1036_lum                    null    field_1036_com    field_1036_mgt        rc_strow_g     up_down_slope              null              null    convtill_nores              null              null              null              null              null
field_1037_lum                    null    field_1037_com    field_1037_mgt        rc_strow_g     up_down_slope              null              null    convtill_nores              null              null              null              null              null
field_1038_lum                    null    field_1038_com    field_1038_mgt        rc_strow_g     up_down_slope              null              null    convtill_nores              null              null              null              null              null
field_1039_lum                    null    field_1039_com    field_1039_mgt        rc_strow_g     up_down_slope              null              null    convtill_nores              null              null              null              null              null
field_103_lum                     null     field_103_com     field_103_mgt        rc_strow_g     up_down_slope              null              null    convtill_nores              null              null              null              null              null
field_1040_lum                    null    field_1040_com    field_1040_mgt        rc_strow_g     up_down_slope              null              null    convtill_nores              null              null              null              null              null
fld_1041_drn_lum                  null  fld_1041_drn_com  fld_1041_drn_mgt        rc_strow_g     up_down_slope              null              null    convtill_nores         mw24_1000              null              null              null              null
fld_1042_drn_lum                  null  fld_1042_drn_com  fld_1042_drn_mgt        rc_strow_g     up_down_slope              null              null    convtill_nores         mw24_1000              null              null              null              null
field_104_lum                     null     field_104_com     field_104_mgt        rc_strow_g     up_down_slope              null              null    convtill_nores              null              null              null              null              null
field_105_lum                     null     field_105_com     field_105_mgt        rc_strow_g     up_down_slope              null              null    convtill_nores              null              null              null              null              null
field_106_lum                     null     field_106_com     field_106_mgt        rc_strow_g     up_down_slope              null              null    convtill_nores              null              null              null              null              null
field_107_lum                     null     field_107_com     field_107_mgt        rc_strow_g     up_down_slope              null              null    convtill_nores              null              null              null              null              null
field_108_lum                     null     field_108_com     field_108_mgt        rc_strow_g     up_down_slope              null              null    convtill_nores              null              null              null              null              null
field_109_lum                     null     field_109_com     field_109_mgt        rc_strow_g     up_down_slope              null              null    convtill_nores              null              null              null              null              null
field_10_lum                      null      field_10_com      field_10_mgt        rc_strow_g     up_down_slope              null              null    convtill_nores              null              null              null              null              null
field_110_lum                     null     field_110_com     field_110_mgt        rc_strow_g     up_down_slope              null              null    convtill_nores              null              null              null              null              null
fld_111_drn_lum                   null   fld_111_drn_com   fld_111_drn_mgt        rc_strow_g     up_down_slope              null              null    convtill_nores         mw24_1000              null              null              null              null
field_112_lum                     null     field_112_com     field_112_mgt        rc_strow_g     up_down_slope              null              null    convtill_nores              null              null              null              null              null
field_113_lum                     null     field_113_com     field_113_mgt        rc_strow_g     up_down_slope              null              null    convtill_nores              null              null              null              null              null
fld_114_drn_lum                   null   fld_114_drn_com   fld_114_drn_mgt        rc_strow_g     up_down_slope              null              null    convtill_nores         mw24_1000              null              null              null              null
field_115_lum                     null     field_115_com     field_115_mgt        rc_strow_g     up_down_slope              null              null    convtill_nores              null              null              null              null              null
fld_116_drn_lum                   null   fld_116_drn_com   fld_116_drn_mgt        rc_strow_g     up_down_slope              null              null    convtill_nores         mw24_1000              null              null              null              null
field_117_lum                     null     field_117_com     field_117_mgt        rc_strow_g     up_down_slope              null              null    convtill_nores              null              null              null              null              null
fld_118_drn_lum                   null   fld_118_drn_com   fld_118_drn_mgt        rc_strow_g     up_down_slope              null              null    convtill_nores         mw24_1000              null              null              null              null
field_119_lum                     null     field_119_com     field_119_mgt        rc_strow_g     up_down_slope              null              null    convtill_nores              null              null              null              null              null
field_11_lum                      null      field_11_com      field_11_mgt        rc_strow_g     up_down_slope              null              null    convtill_nores              null              null              null              null              null
field_120_lum                     null     field_120_com     field_120_mgt        rc_strow_g     up_down_slope              null              null    convtill_nores              null              null              null              null              null
fld_121_drn_lum                   null   fld_121_drn_com   fld_121_drn_mgt        rc_strow_g     up_down_slope              null              null    convtill_nores         mw24_1000              null              null              null              null
fld_122_drn_lum                   null   fld_122_drn_com   fld_122_drn_mgt        rc_strow_g     up_down_slope              null              null    convtill_nores         mw24_1000              null              null              null              null
fld_123_drn_lum                   null   fld_123_drn_com   fld_123_drn_mgt        rc_strow_g     up_down_slope              null              null    convtill_nores         mw24_1000              null              null              null              null
field_124_lum                     null     field_124_com     field_124_mgt        rc_strow_g     up_down_slope              null              null    convtill_nores              null              null              null              null              null
field_125_lum                     null     field_125_com     field_125_mgt        rc_strow_g     up_down_slope              null              null    convtill_nores              null              null              null              null              null
fld_126_drn_lum                   null   fld_126_drn_com   fld_126_drn_mgt        rc_strow_g     up_down_slope              null              null    convtill_nores         mw24_1000              null              null              null              null
fld_127_drn_lum                   null   fld_127_drn_com   fld_127_drn_mgt        rc_strow_g     up_down_slope              null              null    convtill_nores         mw24_1000              null              null              null              null
field_128_lum                     null     field_128_com     field_128_mgt        rc_strow_g     up_down_slope              null              null    convtill_nores              null              null              null              null              null
fld_129_drn_lum                   null   fld_129_drn_com   fld_129_drn_mgt        rc_strow_g     up_down_slope              null              null    convtill_nores         mw24_1000              null              null              null              null
field_12_lum                      null      field_12_com      field_12_mgt        rc_strow_g     up_down_slope              null              null    convtill_nores              null              null              null              null              null
field_130_lum                     null     field_130_com     field_130_mgt        rc_strow_g     up_down_slope              null              null    convtill_nores              null              null              null              null              null
fld_131_drn_lum                   null   fld_131_drn_com   fld_131_drn_mgt        rc_strow_g     up_down_slope              null              null    convtill_nores         mw24_1000              null              null              null              null
field_132_lum                     null     field_132_com     field_132_mgt        rc_strow_g     up_down_slope              null              null    convtill_nores              null              null              null              null              null
fld_133_drn_lum                   null   fld_133_drn_com   fld_133_drn_mgt        rc_strow_g     up_down_slope              null              null    convtill_nores         mw24_1000              null              null              null              null
field_134_lum                     null     field_134_com     field_134_mgt        rc_strow_g     up_down_slope              null              null    convtill_nores              null              null              null              null              null
field_135_lum                     null     field_135_com     field_135_mgt        rc_strow_g     up_down_slope              null              null    convtill_nores              null              null              null              null              null
field_136_lum                     null     field_136_com     field_136_mgt        rc_strow_g     up_down_slope              null              null    convtill_nores              null              null              null              null              null
fld_137_drn_lum                   null   fld_137_drn_com   fld_137_drn_mgt        rc_strow_g     up_down_slope              null              null    convtill_nores         mw24_1000              null              null              null              null
field_138_lum                     null     field_138_com     field_138_mgt        rc_strow_g     up_down_slope              null              null    convtill_nores              null              null              null              null              null
fld_139_drn_lum                   null   fld_139_drn_com   fld_139_drn_mgt        rc_strow_g     up_down_slope              null              null    convtill_nores         mw24_1000              null              null              null              null
field_13_lum                      null      field_13_com      field_13_mgt        rc_strow_g     up_down_slope              null              null    convtill_nores              null              null              null              null              null
fld_140_drn_lum                   null   fld_140_drn_com   fld_140_drn_mgt        rc_strow_g     up_down_slope              null              null    convtill_nores         mw24_1000              null              null              null              null
field_141_lum                     null     field_141_com     field_141_mgt        rc_strow_g     up_down_slope              null              null    convtill_nores              null              null              null              null              null
field_142_lum                     null     field_142_com     field_142_mgt        rc_strow_g     up_down_slope              null              null    convtill_nores              null              null              null              null              null
fld_143_drn_lum                   null   fld_143_drn_com   fld_143_drn_mgt        rc_strow_g     up_down_slope              null              null    convtill_nores         mw24_1000              null              null              null              null
field_144_lum                     null     field_144_com     field_144_mgt        rc_strow_g     up_down_slope              null              null    convtill_nores              null              null              null              null              null
fld_145_drn_lum                   null   fld_145_drn_com   fld_145_drn_mgt        rc_strow_g     up_down_slope              null              null    convtill_nores         mw24_1000              null              null              null              null
fld_146_drn_lum                   null   fld_146_drn_com   fld_146_drn_mgt        rc_strow_g     up_down_slope              null              null    convtill_nores         mw24_1000              null              null              null              null
fld_147_drn_lum                   null   fld_147_drn_com   fld_147_drn_mgt        rc_strow_g     up_down_slope              null              null    convtill_nores         mw24_1000              null              null              null              null
field_148_lum                     null     field_148_com     field_148_mgt        rc_strow_g     up_down_slope              null              null    convtill_nores              null              null              null              null              null
field_149_lum                     null     field_149_com     field_149_mgt        rc_strow_g     up_down_slope              null              null    convtill_nores              null              null              null              null              null
field_14_lum                      null      field_14_com      field_14_mgt        rc_strow_g     up_down_slope              null              null    convtill_nores              null              null              null              null              null
fld_150_drn_lum                   null   fld_150_drn_com   fld_150_drn_mgt        rc_strow_g     up_down_slope              null              null    convtill_nores         mw24_1000              null              null              null              null
field_151_lum                     null     field_151_com     field_151_mgt        rc_strow_g     up_down_slope              null              null    convtill_nores              null              null              null              null              null
field_152_lum                     null     field_152_com     field_152_mgt        rc_strow_g     up_down_slope              null              null    convtill_nores              null              null              null              null              null
field_153_lum                     null     field_153_com     field_153_mgt        rc_strow_g     up_down_slope              null              null    convtill_nores              null              null              null              null              null
field_154_lum                     null     field_154_com     field_154_mgt        rc_strow_g     up_down_slope              null              null    convtill_nores              null              null              null              null              null
fld_155_drn_lum                   null   fld_155_drn_com   fld_155_drn_mgt        rc_strow_g     up_down_slope              null              null    convtill_nores         mw24_1000              null              null              null              null
field_156_lum                     null     field_156_com     field_156_mgt        rc_strow_g     up_down_slope              null              null    convtill_nores              null              null              null              null              null
field_157_lum                     null     field_157_com     field_157_mgt        rc_strow_g     up_down_slope              null              null    convtill_nores              null              null              null              null              null
field_158_lum                     null     field_158_com     field_158_mgt        rc_strow_g     up_down_slope              null              null    convtill_nores              null              null              null              null              null
fld_159_drn_lum                   null   fld_159_drn_com   fld_159_drn_mgt        rc_strow_g     up_down_slope              null              null    convtill_nores         mw24_1000              null              null              null              null
field_15_lum                      null      field_15_com      field_15_mgt        rc_strow_g     up_down_slope              null              null    convtill_nores              null              null              null              null              null
field_160_lum                     null     field_160_com     field_160_mgt        rc_strow_g     up_down_slope              null              null    convtill_nores              null              null              null              null              null
fld_161_drn_lum                   null   fld_161_drn_com   fld_161_drn_mgt        rc_strow_g     up_down_slope              null              null    convtill_nores         mw24_1000              null              null              null              null
field_162_lum                     null     field_162_com     field_162_mgt        rc_strow_g     up_down_slope              null              null    convtill_nores              null              null              null              null              null
field_163_lum                     null     field_163_com     field_163_mgt        rc_strow_g     up_down_slope              null              null    convtill_nores              null              null              null              null              null
fld_164_drn_lum                   null   fld_164_drn_com   fld_164_drn_mgt        rc_strow_g     up_down_slope              null              null    convtill_nores         mw24_1000              null              null              null              null
field_165_lum                     null     field_165_com     field_165_mgt        rc_strow_g     up_down_slope              null              null    convtill_nores              null              null              null              null              null