ls_unit.def: written by SWAT+ editor v2.1.0 on 2023-05-02 16:02 for SWAT+ rev.60.5.4
2327
      id              name          area  elem_tot  elements  
       1           rtu0001       1.31073         1         1  
       2           rtu0002       2.20340         1         2  
       3           rtu0003       0.28745         1         3  
       4           rtu0004       0.42357         1         4  
       5           rtu0005      18.27255         1         5  
       6           rtu0006       0.25371         1         6  
       7           rtu0007      11.63701         1         7  
       8           rtu0008      12.69530         1         8  
       9           rtu0009       0.07076         1         9  
      10           rtu0010       3.17035         1        10  
      11           rtu0011       8.58067         1        11  
      12           rtu0012       2.11748         1        12  
      13           rtu0013       1.68191         1        13  
      14           rtu0014       0.39271         1        14  
      15           rtu0015       2.72511         1        15  
      16           rtu0016       0.99489         1        16  
      17           rtu0017       1.06309         1        17  
      18           rtu0018       0.71301         1        18  
      19           rtu0019       0.00839         1        19  
      20           rtu0020       0.02626         1        20  
      21           rtu0021       0.02056         1        21  
      22           rtu0022       0.06048         1        22  
      23           rtu0023       0.04003         1        23  
      24           rtu0024       0.05089         1        24  
      25           rtu0025       0.20606         1        25  
      26           rtu0026       0.06231         1        26  
      27           rtu0027       0.04641         1        27  
      28           rtu0028       0.95646         1        28  
      29           rtu0029       0.29127         1        29  
      30           rtu0030       0.22599         1        30  
      31           rtu0031       0.21212         1        31  
      32           rtu0032       3.48174         1        32  
      33           rtu0033      15.77262         1        33  
      34           rtu0034       0.17625         1        34  
      35           rtu0035       0.53697         1        35  
      36           rtu0036       8.45813         1        36  
      37           rtu0037       0.06633         1        37  
      38           rtu0038       0.32546         1        38  
      39           rtu0039       0.30892         1        39  
      40           rtu0040      14.84342         1        40  
      41           rtu0041       2.34445         1        41  
      42           rtu0042       0.92156         1        42  
      43           rtu0043       3.25233         1        43  
      44           rtu0044       3.74455         1        44  
      45           rtu0045       0.11909         1        45  
      46           rtu0046       0.01248         1        46  
      47           rtu0047       0.04994         1        47  
      48           rtu0048       0.15833         1        48  
      49           rtu0049       0.17053         1        49  
      50           rtu0050       0.60826         1        50  
      51           rtu0051       0.53424         1        51  
      52           rtu0052       0.18964         1        52  
      53           rtu0053       1.59905         1        53  
      54           rtu0054      29.95507         1        54  
      55           rtu0055      15.58828         1        55  
      56           rtu0056       8.70653         1        56  
      57           rtu0057       7.14753         1        57  
      58           rtu0058       0.03886         1        58  
      59           rtu0059       0.67962         1        59  
      60           rtu0060       1.32354         1        60  
      61           rtu0061      11.85540         1        61  
      62           rtu0062       6.27739         1        62  
      63           rtu0063       0.07016         1        63  
      64           rtu0064       0.10829         1        64  
      65           rtu0065       0.16725         1        65  
      66           rtu0066       0.01179         1        66  
      67           rtu0067       0.04044         1        67  
      68           rtu0068       0.04298         1        68  
      69           rtu0069      11.16664         1        69  
      70           rtu0070       6.53548         1        70  
      71           rtu0071       1.41911         1        71  
      72           rtu0072       0.97295         1        72  
      73           rtu0073       0.02819         1        73  
      74           rtu0074       0.51291         1        74  
      75           rtu0075       0.17180         1        75  
      76           rtu0076       0.68622         1        76  
      77           rtu0077      20.08795         1        77  
      78           rtu0078       0.03873         1        78  
      79           rtu0079       4.23901         1        79  
      80           rtu0080       2.54041         1        80  
      81           rtu0081       4.34933         1        81  
      82           rtu0082       0.07470         1        82  
      83           rtu0083       0.66732         1        83  
      84           rtu0084       0.03961         1        84  
      85           rtu0085       2.87798         1        85  
      86           rtu0086       9.43800         1        86  
      87           rtu0087       3.25534         1        87  
      88           rtu0088       1.15300         1        88  
      89           rtu0089       5.09936         1        89  
      90           rtu0090      10.48525         1        90  
      91           rtu0091      31.21506         1        91  
      92           rtu0092       0.54995         1        92  
      93           rtu0093       7.27328         1        93  
      94           rtu0094      23.79855         1        94  
      95           rtu0095       0.61688         1        95  
      96           rtu0096       3.70622         1        96  
      97           rtu0097       0.00958         1        97  
      98           rtu0098       1.94057         1        98  
      99           rtu0099       2.05995         1        99  
     100           rtu0100       0.44972         1       100  
     101           rtu0101       0.23047         1       101  
     102           rtu0102       0.49998         1       102  
     103           rtu0103       0.15271         1       103  
     104           rtu0104       0.35815         1       104  
     105           rtu0105       0.04856         1       105  
     106           rtu0106       0.10065         1       106  
     107           rtu0107       0.11963         1       107  
     108           rtu0108       6.20689         1       108  
     109           rtu0109       1.89081         1       109  
     110           rtu0110       6.02027         1       110  
     111           rtu0111       0.01110         1       111  
     112           rtu0112       5.61609         1       112  
     113           rtu0113       6.75348         1       113  
     114           rtu0114       0.28335         1       114  
     115           rtu0115       0.33705         1       115  
     116           rtu0116       0.05578         1       116  
     117           rtu0117       0.05658         1       117  
     118           rtu0118       0.18049         1       118  
     119           rtu0119       0.72834         1       119  
     120           rtu0120       0.07077         1       120  
     121           rtu0121       4.92433         1       121  
     122           rtu0122       1.89793         1       122  
     123           rtu0123      10.30489         1       123  
     124           rtu0124       4.58729         1       124  
     125           rtu0125       0.35623         1       125  
     126           rtu0126       5.46190         1       126  
     127           rtu0127       0.05851         1       127  
     128           rtu0128       5.23238         1       128  
     129           rtu0129       5.60656         1       129  
     130           rtu0130      13.10715         1       130  
     131           rtu0131       3.73068         1       131  
     132           rtu0132       3.59444         1       132  
     133           rtu0133       0.53062         1       133  
     134           rtu0134       0.10986         1       134  
     135           rtu0135       2.40568         1       135  
     136           rtu0136       2.52438         1       136  
     137           rtu0137       2.31081         1       137  
     138           rtu0138       0.49129         1       138  
     139           rtu0139       1.22604         1       139  
     140           rtu0140       0.03581         1       140  
     141           rtu0141      14.01926         1       141  
     142           rtu0142       0.77878         1       142  
     143           rtu0143       4.44444         1       143  
     144           rtu0144       1.23995         1       144  
     145           rtu0145       1.68701         1       145  
     146           rtu0146      17.75288         1       146  
     147           rtu0147       1.42350         1       147  
     148           rtu0148       4.33083         1       148  
     149           rtu0149       1.87513         1       149  
     150           rtu0150       0.57966         1       150  
     151           rtu0151       0.55922         1       151  
     152           rtu0152       4.98950         1       152  
     153           rtu0153      13.46485         1       153  
     154           rtu0154       3.50511         1       154  
     155           rtu0155       1.46852         1       155  
     156           rtu0156       1.66418         1       156  
     157           rtu0157      15.38327         1       157  
     158           rtu0158       6.01882         1       158  
     159           rtu0159       0.05529         1       159  
     160           rtu0160       0.20290         1       160  
     161           rtu0161       0.18693         1       161  
     162           rtu0162      12.05401         1       162  
     163           rtu0163       0.19949         1       163  
     164           rtu0164       0.36823         1       164  
     165           rtu0165       1.33963         1       165  
     166           rtu0166       0.56050         1       166  
     167           rtu0167       2.74599         1       167  
     168           rtu0168       2.80807         1       168  
     169           rtu0169       0.13657         1       169  
     170           rtu0170       0.32359         1       170  
     171           rtu0171      15.78020         1       171  
     172           rtu0172       0.39828         1       172  
     173           rtu0173       0.25044         1       173  
     174           rtu0174       3.94003         1       174  
     175           rtu0175       0.57293         1       175  
     176           rtu0176       0.21204         1       176  
     177           rtu0177      24.82114         1       177  
     178           rtu0178      26.55986         1       178  
     179           rtu0179       0.06138         1       179  
     180           rtu0180       1.69426         1       180  
     181           rtu0181       0.66852         1       181  
     182           rtu0182       0.44116         1       182  
     183           rtu0183      10.75775         1       183  
     184           rtu0184       0.77945         1       184  
     185           rtu0185       0.79147         1       185  
     186           rtu0186       2.00262         1       186  
     187           rtu0187       1.40323         1       187  
     188           rtu0188       2.71321         1       188  
     189           rtu0189       2.56385         1       189  
     190           rtu0190       3.51434         1       190  
     191           rtu0191       1.05025         1       191  
     192           rtu0192       0.40761         1       192  
     193           rtu0193      10.96278         1       193  
     194           rtu0194       0.07557         1       194  
     195           rtu0195       0.38516         1       195  
     196           rtu0196       0.37105         1       196  
     197           rtu0197       3.68477         1       197  
     198           rtu0198       1.01696         1       198  
     199           rtu0199       7.73902         1       199  
     200           rtu0200       0.10177         1       200  
     201           rtu0201       1.45439         1       201  
     202           rtu0202       5.26957         1       202  
     203           rtu0203       0.43917         1       203  
     204           rtu0204       0.14966         1       204  
     205           rtu0205       7.31201         1       205  
     206           rtu0206       0.04504         1       206  
     207           rtu0207      16.09997         1       207  
     208           rtu0208       0.41675         1       208  
     209           rtu0209       0.33952         1       209  
     210           rtu0210       5.39442         1       210  
     211           rtu0211       0.01249         1       211  
     212           rtu0212       2.77348         1       212  
     213           rtu0213       2.36276         1       213  
     214           rtu0214       0.99517         1       214  
     215           rtu0215       1.58244         1       215  
     216           rtu0216       2.25162         1       216  
     217           rtu0217       2.63903         1       217  
     218           rtu0218       0.96760         1       218  
     219           rtu0219      11.39102         1       219  
     220           rtu0220       1.31863         1       220  
     221           rtu0221       1.70963         1       221  
     222           rtu0222       1.07042         1       222  
     223           rtu0223       0.10654         1       223  
     224           rtu0224       5.34667         1       224  
     225           rtu0225       0.09921         1       225  
     226           rtu0226       8.02995         1       226  
     227           rtu0227       0.00964         1       227  
     228           rtu0228       0.01205         1       228  
     229           rtu0229       4.41508         1       229  
     230           rtu0230       0.36405         1       230  
     231           rtu0231       0.05399         1       231  
     232           rtu0232       1.22810         1       232  
     233           rtu0233       0.39116         1       233  
     234           rtu0234       0.14222         1       234  
     235           rtu0235      19.86538         1       235  
     236           rtu0236       0.09337         1       236  
     237           rtu0237       0.09993         1       237  
     238           rtu0238       0.41004         1       238  
     239           rtu0239      20.32149         1       239  
     240           rtu0240       0.52047         1       240  
     241           rtu0241       1.53629         1       241  
     242           rtu0242       0.41221         1       242  
     243           rtu0243       0.90454         1       243  
     244           rtu0244       0.49198         1       244  
     245           rtu0245       0.95937         1       245  
     246           rtu0246       0.63956         1       246  
     247           rtu0247      12.53052         1       247  
     248           rtu0248       0.09177         1       248  
     249           rtu0249       6.12724         1       249  
     250           rtu0250       3.58165         1       250  
     251           rtu0251       3.92321         1       251  
     252           rtu0252       5.86757         1       252  
     253           rtu0253       0.34442         1       253  
     254           rtu0254       6.38909         1       254  
     255           rtu0255       8.67712         1       255  
     256           rtu0256       3.52896         1       256  
     257           rtu0257       0.79418         1       257  
     258           rtu0258      11.60186         1       258  
     259           rtu0259      18.50642         1       259  
     260           rtu0260       0.93058         1       260  
     261           rtu0261       7.26650         1       261  
     262           rtu0262       1.87235         1       262  
     263           rtu0263       0.40853         1       263  
     264           rtu0264       0.21737         1       264  
     265           rtu0265       0.43968         1       265  
     266           rtu0266       0.05780         1       266  
     267           rtu0267       0.66781         1       267  
     268           rtu0268      23.49416         1       268  
     269           rtu0269       2.01860         1       269  
     270           rtu0270      11.58306         1       270  
     271           rtu0271       0.01759         1       271  
     272           rtu0272       0.01021         1       272  
     273           rtu0273       2.07795         1       273  
     274           rtu0274      11.99253         1       274  
     275           rtu0275       8.31666         1       275  
     276           rtu0276       0.43567         1       276  
     277           rtu0277       0.59536         1       277  
     278           rtu0278       6.31931         1       278  
     279           rtu0279       0.51783         1       279  
     280           rtu0280       8.86580         1       280  
     281           rtu0281       0.50821         1       281  
     282           rtu0282       0.59711         1       282  
     283           rtu0283       0.04289         1       283  
     284           rtu0284       0.39342         1       284  
     285           rtu0285       2.17630         1       285  
     286           rtu0286      11.90135         1       286  
     287           rtu0287       0.03099         1       287  
     288           rtu0288       3.30059         1       288  
     289           rtu0289       7.67780         1       289  
     290           rtu0290       0.41043         1       290  
     291           rtu0291       0.01935         1       291  
     292           rtu0292       0.47929         1       292  
     293           rtu0293       0.74328         1       293  
     294           rtu0294       0.95958         1       294  
     295           rtu0295       2.48103         1       295  
     296           rtu0296       0.09503         1       296  
     297           rtu0297       0.01590         1       297  
     298           rtu0298       0.09998         1       298  
     299           rtu0299       0.08506         1       299  
     300           rtu0300       1.28410         1       300  
     301           rtu0301       2.57151         1       301  
     302           rtu0302      17.06371         1       302  
     303           rtu0303       0.76911         1       303  
     304           rtu0304       0.35067         1       304  
     305           rtu0305       1.00321         1       305  
     306           rtu0306       6.61865         1       306  
     307           rtu0307       0.30014         1       307  
     308           rtu0308       0.10705         1       308  
     309           rtu0309      25.10575         1       309  
     310           rtu0310       1.06510         1       310  
     311           rtu0311       0.55074         1       311  
     312           rtu0312       6.73245         1       312  
     313           rtu0313       0.01270         1       313  
     314           rtu0314       0.91427         1       314  
     315           rtu0315       0.44785         1       315  
     316           rtu0316       0.18557         1       316  
     317           rtu0317       0.33587         1       317  
     318           rtu0318       0.43585         1       318  
     319           rtu0319      15.60307         1       319  
     320           rtu0320       3.25602         1       320  
     321           rtu0321       0.48557         1       321  
     322           rtu0322       0.97413         1       322  
     323           rtu0323       0.57786         1       323  
     324           rtu0324       2.23384         1       324  
     325           rtu0325       3.25483         1       325  
     326           rtu0326      14.91391         1       326  
     327           rtu0327       0.03320         1       327  
     328           rtu0328       2.90108         1       328  
     329           rtu0329       5.50649         1       329  
     330           rtu0330       0.00831         1       330  
     331           rtu0331       1.35050         1       331  
     332           rtu0332       9.78990         1       332  
     333           rtu0333       0.15766         1       333  
     334           rtu0334       0.35589         1       334  
     335           rtu0335       1.69170         1       335  
     336           rtu0336       0.38754         1       336  
     337           rtu0337       0.32886         1       337  
     338           rtu0338       0.20270         1       338  
     339           rtu0339       0.05718         1       339  
     340           rtu0340       0.12005         1       340  
     341           rtu0341       0.50155         1       341  
     342           rtu0342       0.07255         1       342  
     343           rtu0343       0.18606         1       343  
     344           rtu0344       0.93573         1       344  
     345           rtu0345       1.00863         1       345  
     346           rtu0346       0.30555         1       346  
     347           rtu0347       1.39671         1       347  
     348           rtu0348       0.89457         1       348  
     349           rtu0349       0.21129         1       349  
     350           rtu0350       0.06873         1       350  
     351           rtu0351       7.60230         1       351  
     352           rtu0352       5.21762         1       352  
     353           rtu0353       2.20799         1       353  
     354           rtu0354       2.65082         1       354  
     355           rtu0355       1.15045         1       355  
     356           rtu0356       6.85285         1       356  
     357           rtu0357       1.70490         1       357  
     358           rtu0358      10.56290         1       358  
     359           rtu0359      27.14467         1       359  
     360           rtu0360       2.50944         1       360  
     361           rtu0361       3.34063         1       361  
     362           rtu0362       0.07887         1       362  
     363           rtu0363      13.14094         1       363  
     364           rtu0364       0.07122         1       364  
     365           rtu0365       0.61729         1       365  
     366           rtu0366       0.12869         1       366  
     367           rtu0367       1.63472         1       367  
     368           rtu0368      20.68800         1       368  
     369           rtu0369       0.29570         1       369  
     370           rtu0370       1.78718         1       370  
     371           rtu0371       6.34189         1       371  
     372           rtu0372       5.37716         1       372  
     373           rtu0373       5.74389         1       373  
     374           rtu0374       7.07259         1       374  
     375           rtu0375       0.38224         1       375  
     376           rtu0376       4.66530         1       376  
     377           rtu0377       0.78208         1       377  
     378           rtu0378       0.18154         1       378  
     379           rtu0379       0.37488         1       379  
     380           rtu0380       8.50990         1       380  
     381           rtu0381       0.16509         1       381  
     382           rtu0382       8.09376         1       382  
     383           rtu0383       0.12321         1       383  
     384           rtu0384       0.17367         1       384  
     385           rtu0385       0.30405         1       385  
     386           rtu0386       5.62982         1       386  
     387           rtu0387       6.63406         1       387  
     388           rtu0388       0.00805         1       388  
     389           rtu0389       0.13098         1       389  
     390           rtu0390       6.04416         1       390  
     391           rtu0391       1.52894         1       391  
     392           rtu0392       0.16360         1       392  
     393           rtu0393       0.00900         1       393  
     394           rtu0394       0.20851         1       394  
     395           rtu0395       6.61706         1       395  
     396           rtu0396       5.59609         1       396  
     397           rtu0397       0.43568         1       397  
     398           rtu0398       0.85014         1       398  
     399           rtu0399      13.85726         1       399  
     400           rtu0400       0.06152         1       400  
     401           rtu0401       1.77093         1       401  
     402           rtu0402       0.89818         1       402  
     403           rtu0403       0.27671         1       403  
     404           rtu0404       0.17473         1       404  
     405           rtu0405       0.04547         1       405  
     406           rtu0406       1.76438         1       406  
     407           rtu0407       0.33694         1       407  
     408           rtu0408       0.01067         1       408  
     409           rtu0409       0.54023         1       409  
     410           rtu0410      15.86549         1       410  
     411           rtu0411       0.88565         1       411  
     412           rtu0412       3.83702         1       412  
     413           rtu0413       2.74398         1       413  
     414           rtu0414       2.24050         1       414  
     415           rtu0415      16.49453         1       415  
     416           rtu0416       3.67665         1       416  
     417           rtu0417       1.59596         1       417  
     418           rtu0418       8.87396         1       418  
     419           rtu0419       0.74570         1       419  
     420           rtu0420       0.18447         1       420  
     421           rtu0421      14.29036         1       421  
     422           rtu0422       5.19370         1       422  
     423           rtu0423       0.01389         1       423  
     424           rtu0424       0.02137         1       424  
     425           rtu0425       0.01543         1       425  
     426           rtu0426      10.26194         1       426  
     427           rtu0427       0.53239         1       427  
     428           rtu0428       0.02139         1       428  
     429           rtu0429       7.74606         1       429  
     430           rtu0430       0.03264         1       430  
     431           rtu0431       0.02695         1       431  
     432           rtu0432       1.50109         1       432  
     433           rtu0433       4.84187         1       433  
     434           rtu0434       1.10462         1       434  
     435           rtu0435      12.03002         1       435  
     436           rtu0436       0.12216         1       436  
     437           rtu0437       2.52986         1       437  
     438           rtu0438       1.95315         1       438  
     439           rtu0439       0.04546         1       439  
     440           rtu0440       1.59569         1       440  
     441           rtu0441      11.40885         1       441  
     442           rtu0442       4.54850         1       442  
     443           rtu0443      18.17922         1       443  
     444           rtu0444       0.79168         1       444  
     445           rtu0445       1.38828         1       445  
     446           rtu0446       0.40303         1       446  
     447           rtu0447       0.56660         1       447  
     448           rtu0448       0.28326         1       448  
     449           rtu0449       1.80704         1       449  
     450           rtu0450       0.02116         1       450  
     451           rtu0451       5.55507         1       451  
     452           rtu0452       0.31714         1       452  
     453           rtu0453       0.00617         1       453  
     454           rtu0454       2.02948         1       454  
     455           rtu0455       2.98591         1       455  
     456           rtu0456       3.79919         1       456  
     457           rtu0457       0.14799         1       457  
     458           rtu0458       9.97236         1       458  
     459           rtu0459       1.25339         1       459  
     460           rtu0460       0.41523         1       460  
     461           rtu0461       0.18778         1       461  
     462           rtu0462       0.20578         1       462  
     463           rtu0463       0.09138         1       463  
     464           rtu0464      22.14398         1       464  
     465           rtu0465       0.23114         1       465  
     466           rtu0466       1.01778         1       466  
     467           rtu0467       1.03361         1       467  
     468           rtu0468       0.57813         1       468  
     469           rtu0469       2.74568         1       469  
     470           rtu0470       0.14118         1       470  
     471           rtu0471       2.02519         1       471  
     472           rtu0472       0.32462         1       472  
     473           rtu0473      20.17974         1       473  