ls_unit.ele: written by SWAT+ editor v2.1.0 on 2023-05-02 16:02 for SWAT+ rev.60.5.4
      id  name                   obj_typ  obj_typ_no      bsn_frac      sub_frac      reg_frac  
       1  hru0001                    hru           1     1.8349E-4       1.00000       0.00000  
       2  hru0002                    hru           2     3.0845E-4       1.00000       0.00000  
       3  hru0003                    hru           3     4.0240E-5       1.00000       0.00000  
       4  hru0004                    hru           4     5.9295E-5       1.00000       0.00000  
       5  hru0005                    hru           5     2.5579E-3       1.00000       0.00000  
       6  hru0006                    hru           6     3.5516E-5       1.00000       0.00000  
       7  hru0007                    hru           7     1.6290E-3       1.00000       0.00000  
       8  hru0008                    hru           8     1.7772E-3       1.00000       0.00000  
       9  hru0009                    hru           9     9.9058E-6       1.00000       0.00000  
      10  hru0010                    hru          10     4.4381E-4       1.00000       0.00000  
      11  hru0011                    hru          11     1.2012E-3       1.00000       0.00000  
      12  hru0012                    hru          12     2.9642E-4       1.00000       0.00000  
      13  hru0013                    hru          13     2.3545E-4       1.00000       0.00000  
      14  hru0014                    hru          14     5.4974E-5       1.00000       0.00000  
      15  hru0015                    hru          15     3.8148E-4       1.00000       0.00000  
      16  hru0016                    hru          16     1.3927E-4       1.00000       0.00000  
      17  hru0017                    hru          17     1.4882E-4       1.00000       0.00000  
      18  hru0018                    hru          18     9.9813E-5       1.00000       0.00000  
      19  hru0019                    hru          19     1.1750E-6       1.00000       0.00000  
      20  hru0020                    hru          20     3.6762E-6       1.00000       0.00000  
      21  hru0021                    hru          21     2.8786E-6       1.00000       0.00000  
      22  hru0022                    hru          22     8.4662E-6       1.00000       0.00000  
      23  hru0023                    hru          23     5.6035E-6       1.00000       0.00000  
      24  hru0024                    hru          24     7.1237E-6       1.00000       0.00000  
      25  hru0025                    hru          25     2.8846E-5       1.00000       0.00000  
      26  hru0026                    hru          26     8.7228E-6       1.00000       0.00000  
      27  hru0027                    hru          27     6.4966E-6       1.00000       0.00000  
      28  hru0028                    hru          28     1.3389E-4       1.00000       0.00000  
      29  hru0029                    hru          29     4.0774E-5       1.00000       0.00000  
      30  hru0030                    hru          30     3.1636E-5       1.00000       0.00000  
      31  hru0031                    hru          31     2.9694E-5       1.00000       0.00000  
      32  hru0032                    hru          32     4.8740E-4       1.00000       0.00000  
      33  hru0033                    hru          33     2.2080E-3       1.00000       0.00000  
      34  hru0034                    hru          34     2.4673E-5       1.00000       0.00000  
      35  hru0035                    hru          35     7.5170E-5       1.00000       0.00000  
      36  hru0036                    hru          36     1.1840E-3       1.00000       0.00000  
      37  hru0037                    hru          37     9.2856E-6       1.00000       0.00000  
      38  hru0038                    hru          38     4.5560E-5       1.00000       0.00000  
      39  hru0039                    hru          39     4.3245E-5       1.00000       0.00000  
      40  hru0040                    hru          40     2.0779E-3       1.00000       0.00000  
      41  hru0041                    hru          41     3.2819E-4       1.00000       0.00000  
      42  hru0042                    hru          42     1.2901E-4       1.00000       0.00000  
      43  hru0043                    hru          43     4.5529E-4       1.00000       0.00000  
      44  hru0044                    hru          44     5.2419E-4       1.00000       0.00000  
      45  hru0045                    hru          45     1.6671E-5       1.00000       0.00000  
      46  hru0046                    hru          46     1.7469E-6       1.00000       0.00000  
      47  hru0047                    hru          47     6.9916E-6       1.00000       0.00000  
      48  hru0048                    hru          48     2.2164E-5       1.00000       0.00000  
      49  hru0049                    hru          49     2.3872E-5       1.00000       0.00000  
      50  hru0050                    hru          50     8.5148E-5       1.00000       0.00000  
      51  hru0051                    hru          51     7.4787E-5       1.00000       0.00000  
      52  hru0052                    hru          52     2.6547E-5       1.00000       0.00000  
      53  hru0053                    hru          53     2.2385E-4       1.00000       0.00000  
      54  hru0054                    hru          54     4.1933E-3       1.00000       0.00000  
      55  hru0055                    hru          55     2.1822E-3       1.00000       0.00000  
      56  hru0056                    hru          56     1.2188E-3       1.00000       0.00000  
      57  hru0057                    hru          57     1.0006E-3       1.00000       0.00000  
      58  hru0058                    hru          58     5.4396E-6       1.00000       0.00000  
      59  hru0059                    hru          59     9.5138E-5       1.00000       0.00000  
      60  hru0060                    hru          60     1.8528E-4       1.00000       0.00000  
      61  hru0061                    hru          61     1.6596E-3       1.00000       0.00000  
      62  hru0062                    hru          62     8.7876E-4       1.00000       0.00000  
      63  hru0063                    hru          63     9.8213E-6       1.00000       0.00000  
      64  hru0064                    hru          64     1.5159E-5       1.00000       0.00000  
      65  hru0065                    hru          65     2.3412E-5       1.00000       0.00000  
      66  hru0066                    hru          66     1.6506E-6       1.00000       0.00000  
      67  hru0067                    hru          67     5.6610E-6       1.00000       0.00000  
      68  hru0068                    hru          68     6.0163E-6       1.00000       0.00000  
      69  hru0069                    hru          69     1.5632E-3       1.00000       0.00000  
      70  hru0070                    hru          70     9.1489E-4       1.00000       0.00000  
      71  hru0071                    hru          71     1.9866E-4       1.00000       0.00000  
      72  hru0072                    hru          72     1.3620E-4       1.00000       0.00000  
      73  hru0073                    hru          73     3.9461E-6       1.00000       0.00000  
      74  hru0074                    hru          74     7.1801E-5       1.00000       0.00000  
      75  hru0075                    hru          75     2.4050E-5       1.00000       0.00000  
      76  hru0076                    hru          76     9.6062E-5       1.00000       0.00000  
      77  hru0077                    hru          77     2.8121E-3       1.00000       0.00000  
      78  hru0078                    hru          78     5.4214E-6       1.00000       0.00000  
      79  hru0079                    hru          79     5.9341E-4       1.00000       0.00000  
      80  hru0080                    hru          80     3.5562E-4       1.00000       0.00000  
      81  hru0081                    hru          81     6.0885E-4       1.00000       0.00000  
      82  hru0082                    hru          82     1.0457E-5       1.00000       0.00000  
      83  hru0083                    hru          83     9.3417E-5       1.00000       0.00000  
      84  hru0084                    hru          84     5.5450E-6       1.00000       0.00000  
      85  hru0085                    hru          85     4.0288E-4       1.00000       0.00000  
      86  hru0086                    hru          86     1.3212E-3       1.00000       0.00000  
      87  hru0087                    hru          87     4.5571E-4       1.00000       0.00000  
      88  hru0088                    hru          88     1.6141E-4       1.00000       0.00000  
      89  hru0089                    hru          89     7.1385E-4       1.00000       0.00000  
      90  hru0090                    hru          90     1.4678E-3       1.00000       0.00000  
      91  hru0091                    hru          91     4.3697E-3       1.00000       0.00000  
      92  hru0092                    hru          92     7.6987E-5       1.00000       0.00000  
      93  hru0093                    hru          93     1.0182E-3       1.00000       0.00000  
      94  hru0094                    hru          94     3.3315E-3       1.00000       0.00000  
      95  hru0095                    hru          95     8.6355E-5       1.00000       0.00000  
      96  hru0096                    hru          96     5.1882E-4       1.00000       0.00000  
      97  hru0097                    hru          97     1.3418E-6       1.00000       0.00000  
      98  hru0098                    hru          98     2.7165E-4       1.00000       0.00000  
      99  hru0099                    hru          99     2.8837E-4       1.00000       0.00000  
     100  hru0100                    hru         100     6.2956E-5       1.00000       0.00000  
     101  hru0101                    hru         101     3.2262E-5       1.00000       0.00000  
     102  hru0102                    hru         102     6.9992E-5       1.00000       0.00000  
     103  hru0103                    hru         103     2.1377E-5       1.00000       0.00000  
     104  hru0104                    hru         104     5.0136E-5       1.00000       0.00000  
     105  hru0105                    hru         105     6.7972E-6       1.00000       0.00000  
     106  hru0106                    hru         106     1.4090E-5       1.00000       0.00000  
     107  hru0107                    hru         107     1.6746E-5       1.00000       0.00000  
     108  hru0108                    hru         108     8.6889E-4       1.00000       0.00000  
     109  hru0109                    hru         109     2.6469E-4       1.00000       0.00000  
     110  hru0110                    hru         110     8.4276E-4       1.00000       0.00000  
     111  hru0111                    hru         111     1.5538E-6       1.00000       0.00000  
     112  hru0112                    hru         112     7.8618E-4       1.00000       0.00000  
     113  hru0113                    hru         113     9.4540E-4       1.00000       0.00000  
     114  hru0114                    hru         114     3.9665E-5       1.00000       0.00000  
     115  hru0115                    hru         115     4.7182E-5       1.00000       0.00000  
     116  hru0116                    hru         116     7.8085E-6       1.00000       0.00000  
     117  hru0117                    hru         117     7.9210E-6       1.00000       0.00000  
     118  hru0118                    hru         118     2.5266E-5       1.00000       0.00000  
     119  hru0119                    hru         119     1.0196E-4       1.00000       0.00000  
     120  hru0120                    hru         120     9.9070E-6       1.00000       0.00000  
     121  hru0121                    hru         121     6.8934E-4       1.00000       0.00000  
     122  hru0122                    hru         122     2.6569E-4       1.00000       0.00000  
     123  hru0123                    hru         123     1.4426E-3       1.00000       0.00000  
     124  hru0124                    hru         124     6.4216E-4       1.00000       0.00000  
     125  hru0125                    hru         125     4.9868E-5       1.00000       0.00000  
     126  hru0126                    hru         126     7.6460E-4       1.00000       0.00000  
     127  hru0127                    hru         127     8.1913E-6       1.00000       0.00000  
     128  hru0128                    hru         128     7.3247E-4       1.00000       0.00000  
     129  hru0129                    hru         129     7.8485E-4       1.00000       0.00000  
     130  hru0130                    hru         130     1.8348E-3       1.00000       0.00000  
     131  hru0131                    hru         131     5.2225E-4       1.00000       0.00000  
     132  hru0132                    hru         132     5.0318E-4       1.00000       0.00000  
     133  hru0133                    hru         133     7.4279E-5       1.00000       0.00000  
     134  hru0134                    hru         134     1.5379E-5       1.00000       0.00000  
     135  hru0135                    hru         135     3.3677E-4       1.00000       0.00000  
     136  hru0136                    hru         136     3.5338E-4       1.00000       0.00000  
     137  hru0137                    hru         137     3.2348E-4       1.00000       0.00000  
     138  hru0138                    hru         138     6.8774E-5       1.00000       0.00000  
     139  hru0139                    hru         139     1.7163E-4       1.00000       0.00000  
     140  hru0140                    hru         140     5.0129E-6       1.00000       0.00000  
     141  hru0141                    hru         141     1.9625E-3       1.00000       0.00000  
     142  hru0142                    hru         142     1.0902E-4       1.00000       0.00000  
     143  hru0143                    hru         143     6.2217E-4       1.00000       0.00000  
     144  hru0144                    hru         144     1.7358E-4       1.00000       0.00000  
     145  hru0145                    hru         145     2.3616E-4       1.00000       0.00000  
     146  hru0146                    hru         146     2.4852E-3       1.00000       0.00000  
     147  hru0147                    hru         147     1.9927E-4       1.00000       0.00000  
     148  hru0148                    hru         148     6.0626E-4       1.00000       0.00000  
     149  hru0149                    hru         149     2.6249E-4       1.00000       0.00000  
     150  hru0150                    hru         150     8.1145E-5       1.00000       0.00000  
     151  hru0151                    hru         151     7.8284E-5       1.00000       0.00000  
     152  hru0152                    hru         152     6.9847E-4       1.00000       0.00000  
     153  hru0153                    hru         153     1.8849E-3       1.00000       0.00000  
     154  hru0154                    hru         154     4.9067E-4       1.00000       0.00000  
     155  hru0155                    hru         155     2.0557E-4       1.00000       0.00000  
     156  hru0156                    hru         156     2.3296E-4       1.00000       0.00000  
     157  hru0157                    hru         157     2.1535E-3       1.00000       0.00000  
     158  hru0158                    hru         158     8.4256E-4       1.00000       0.00000  
     159  hru0159                    hru         159     7.7394E-6       1.00000       0.00000  
     160  hru0160                    hru         160     2.8403E-5       1.00000       0.00000  
     161  hru0161                    hru         161     2.6168E-5       1.00000       0.00000  
     162  hru0162                    hru         162     1.6874E-3       1.00000       0.00000  
     163  hru0163                    hru         163     2.7927E-5       1.00000       0.00000  
     164  hru0164                    hru         164     5.1548E-5       1.00000       0.00000  
     165  hru0165                    hru         165     1.8753E-4       1.00000       0.00000  
     166  hru0166                    hru         166     7.8462E-5       1.00000       0.00000  
     167  hru0167                    hru         167     3.8440E-4       1.00000       0.00000  
     168  hru0168                    hru         168     3.9309E-4       1.00000       0.00000  
     169  hru0169                    hru         169     1.9119E-5       1.00000       0.00000  
     170  hru0170                    hru         170     4.5298E-5       1.00000       0.00000  
     171  hru0171                    hru         171     2.2090E-3       1.00000       0.00000  
     172  hru0172                    hru         172     5.5754E-5       1.00000       0.00000  
     173  hru0173                    hru         173     3.5059E-5       1.00000       0.00000  
     174  hru0174                    hru         174     5.5155E-4       1.00000       0.00000  
     175  hru0175                    hru         175     8.0203E-5       1.00000       0.00000  
     176  hru0176                    hru         176     2.9683E-5       1.00000       0.00000  
     177  hru0177                    hru         177     3.4746E-3       1.00000       0.00000  
     178  hru0178                    hru         178     3.7180E-3       1.00000       0.00000  
     179  hru0179                    hru         179     8.5927E-6       1.00000       0.00000  
     180  hru0180                    hru         180     2.3718E-4       1.00000       0.00000  
     181  hru0181                    hru         181     9.3585E-5       1.00000       0.00000  
     182  hru0182                    hru         182     6.1757E-5       1.00000       0.00000  
     183  hru0183                    hru         183     1.5059E-3       1.00000       0.00000  
     184  hru0184                    hru         184     1.0911E-4       1.00000       0.00000  
     185  hru0185                    hru         185     1.1080E-4       1.00000       0.00000  
     186  hru0186                    hru         186     2.8034E-4       1.00000       0.00000  
     187  hru0187                    hru         187     1.9643E-4       1.00000       0.00000  
     188  hru0188                    hru         188     3.7981E-4       1.00000       0.00000  
     189  hru0189                    hru         189     3.5891E-4       1.00000       0.00000  
     190  hru0190                    hru         190     4.9196E-4       1.00000       0.00000  
     191  hru0191                    hru         191     1.4702E-4       1.00000       0.00000  
     192  hru0192                    hru         192     5.7060E-5       1.00000       0.00000  
     193  hru0193                    hru         193     1.5347E-3       1.00000       0.00000  
     194  hru0194                    hru         194     1.0579E-5       1.00000       0.00000  
     195  hru0195                    hru         195     5.3918E-5       1.00000       0.00000  
     196  hru0196                    hru         196     5.1942E-5       1.00000       0.00000  
     197  hru0197                    hru         197     5.1582E-4       1.00000       0.00000  
     198  hru0198                    hru         198     1.4236E-4       1.00000       0.00000  
     199  hru0199                    hru         199     1.0834E-3       1.00000       0.00000  
     200  hru0200                    hru         200     1.4246E-5       1.00000       0.00000  
     201  hru0201                    hru         201     2.0360E-4       1.00000       0.00000  
     202  hru0202                    hru         202     7.3767E-4       1.00000       0.00000  
     203  hru0203                    hru         203     6.1478E-5       1.00000       0.00000  
     204  hru0204                    hru         204     2.0951E-5       1.00000       0.00000  
     205  hru0205                    hru         205     1.0236E-3       1.00000       0.00000  
     206  hru0206                    hru         206     6.3046E-6       1.00000       0.00000  
     207  hru0207                    hru         207     2.2538E-3       1.00000       0.00000  
     208  hru0208                    hru         208     5.8339E-5       1.00000       0.00000  
     209  hru0209                    hru         209     4.7529E-5       1.00000       0.00000  
     210  hru0210                    hru         210     7.5515E-4       1.00000       0.00000  
     211  hru0211                    hru         211     1.7478E-6       1.00000       0.00000  
     212  hru0212                    hru         212     3.8825E-4       1.00000       0.00000  
     213  hru0213                    hru         213     3.3076E-4       1.00000       0.00000  
     214  hru0214                    hru         214     1.3931E-4       1.00000       0.00000  
     215  hru0215                    hru         215     2.2152E-4       1.00000       0.00000  
     216  hru0216                    hru         216     3.1520E-4       1.00000       0.00000  
     217  hru0217                    hru         217     3.6943E-4       1.00000       0.00000  
     218  hru0218                    hru         218     1.3545E-4       1.00000       0.00000  
     219  hru0219                    hru         219     1.5946E-3       1.00000       0.00000  
     220  hru0220                    hru         220     1.8459E-4       1.00000       0.00000  
     221  hru0221                    hru         221     2.3933E-4       1.00000       0.00000  
     222  hru0222                    hru         222     1.4985E-4       1.00000       0.00000  
     223  hru0223                    hru         223     1.4914E-5       1.00000       0.00000  
     224  hru0224                    hru         224     7.4847E-4       1.00000       0.00000  
     225  hru0225                    hru         225     1.3888E-5       1.00000       0.00000  
     226  hru0226                    hru         226     1.1241E-3       1.00000       0.00000  
     227  hru0227                    hru         227     1.3501E-6       1.00000       0.00000  
     228  hru0228                    hru         228     1.6875E-6       1.00000       0.00000  
     229  hru0229                    hru         229     6.1806E-4       1.00000       0.00000  
     230  hru0230                    hru         230     5.0963E-5       1.00000       0.00000  
     231  hru0231                    hru         231     7.5579E-6       1.00000       0.00000  
     232  hru0232                    hru         232     1.7192E-4       1.00000       0.00000  
     233  hru0233                    hru         233     5.4757E-5       1.00000       0.00000  
     234  hru0234                    hru         234     1.9909E-5       1.00000       0.00000  
     235  hru0235                    hru         235     2.7809E-3       1.00000       0.00000  
     236  hru0236                    hru         236     1.3071E-5       1.00000       0.00000  
     237  hru0237                    hru         237     1.3988E-5       1.00000       0.00000  
     238  hru0238                    hru         238     5.7401E-5       1.00000       0.00000  
     239  hru0239                    hru         239     2.8448E-3       1.00000       0.00000  
     240  hru0240                    hru         240     7.2859E-5       1.00000       0.00000  
     241  hru0241                    hru         241     2.1506E-4       1.00000       0.00000  
     242  hru0242                    hru         242     5.7704E-5       1.00000       0.00000  
     243  hru0243                    hru         243     1.2662E-4       1.00000       0.00000  
     244  hru0244                    hru         244     6.8871E-5       1.00000       0.00000  
     245  hru0245                    hru         245     1.3430E-4       1.00000       0.00000  
     246  hru0246                    hru         246     8.9530E-5       1.00000       0.00000  
     247  hru0247                    hru         247     1.7541E-3       1.00000       0.00000  
     248  hru0248                    hru         248     1.2847E-5       1.00000       0.00000  
     249  hru0249                    hru         249     8.5774E-4       1.00000       0.00000  
     250  hru0250                    hru         250     5.0139E-4       1.00000       0.00000  
     251  hru0251                    hru         251     5.4920E-4       1.00000       0.00000  
     252  hru0252                    hru         252     8.2139E-4       1.00000       0.00000  
     253  hru0253                    hru         253     4.8214E-5       1.00000       0.00000  
     254  hru0254                    hru         254     8.9439E-4       1.00000       0.00000  
     255  hru0255                    hru         255     1.2147E-3       1.00000       0.00000  
     256  hru0256                    hru         256     4.9401E-4       1.00000       0.00000  
     257  hru0257                    hru         257     1.1117E-4       1.00000       0.00000  
     258  hru0258                    hru         258     1.6241E-3       1.00000       0.00000  
     259  hru0259                    hru         259     2.5907E-3       1.00000       0.00000  
     260  hru0260                    hru         260     1.3027E-4       1.00000       0.00000  
     261  hru0261                    hru         261     1.0172E-3       1.00000       0.00000  
     262  hru0262                    hru         262     2.6210E-4       1.00000       0.00000  
     263  hru0263                    hru         263     5.7188E-5       1.00000       0.00000  
     264  hru0264                    hru         264     3.0430E-5       1.00000       0.00000  
     265  hru0265                    hru         265     6.1549E-5       1.00000       0.00000  
     266  hru0266                    hru         266     8.0906E-6       1.00000       0.00000  
     267  hru0267                    hru         267     9.3485E-5       1.00000       0.00000  
     268  hru0268                    hru         268     3.2889E-3       1.00000       0.00000  
     269  hru0269                    hru         269     2.8258E-4       1.00000       0.00000  
     270  hru0270                    hru         270     1.6215E-3       1.00000       0.00000  
     271  hru0271                    hru         271     2.4624E-6       1.00000       0.00000  
     272  hru0272                    hru         272     1.4296E-6       1.00000       0.00000  
     273  hru0273                    hru         273     2.9089E-4       1.00000       0.00000  
     274  hru0274                    hru         274     1.6788E-3       1.00000       0.00000  
     275  hru0275                    hru         275     1.1642E-3       1.00000       0.00000  
     276  hru0276                    hru         276     6.0988E-5       1.00000       0.00000  
     277  hru0277                    hru         277     8.3343E-5       1.00000       0.00000  
     278  hru0278                    hru         278     8.8462E-4       1.00000       0.00000  
     279  hru0279                    hru         279     7.2490E-5       1.00000       0.00000  
     280  hru0280                    hru         280     1.2411E-3       1.00000       0.00000  
     281  hru0281                    hru         281     7.1142E-5       1.00000       0.00000  
     282  hru0282                    hru         282     8.3588E-5       1.00000       0.00000  
     283  hru0283                    hru         283     6.0041E-6       1.00000       0.00000  
     284  hru0284                    hru         284     5.5074E-5       1.00000       0.00000  
     285  hru0285                    hru         285     3.0465E-4       1.00000       0.00000  
     286  hru0286                    hru         286     1.6660E-3       1.00000       0.00000  
     287  hru0287                    hru         287     4.3383E-6       1.00000       0.00000  
     288  hru0288                    hru         288     4.6204E-4       1.00000       0.00000  
     289  hru0289                    hru         289     1.0748E-3       1.00000       0.00000  
     290  hru0290                    hru         290     5.7456E-5       1.00000       0.00000  
     291  hru0291                    hru         291     2.7086E-6       1.00000       0.00000  
     292  hru0292                    hru         292     6.7095E-5       1.00000       0.00000  
     293  hru0293                    hru         293     1.0405E-4       1.00000       0.00000  
     294  hru0294                    hru         294     1.3433E-4       1.00000       0.00000  
     295  hru0295                    hru         295     3.4731E-4       1.00000       0.00000  
     296  hru0296                    hru         296     1.3303E-5       1.00000       0.00000  
     297  hru0297                    hru         297     2.2260E-6       1.00000       0.00000  
     298  hru0298                    hru         298     1.3995E-5       1.00000       0.00000  
     299  hru0299                    hru         299     1.1907E-5       1.00000       0.00000  
     300  hru0300                    hru         300     1.7976E-4       1.00000       0.00000  
     301  hru0301                    hru         301     3.5998E-4       1.00000       0.00000  
     302  hru0302                    hru         302     2.3887E-3       1.00000       0.00000  
     303  hru0303                    hru         303     1.0767E-4       1.00000       0.00000  
     304  hru0304                    hru         304     4.9089E-5       1.00000       0.00000  
     305  hru0305                    hru         305     1.4044E-4       1.00000       0.00000  
     306  hru0306                    hru         306     9.2653E-4       1.00000       0.00000  
     307  hru0307                    hru         307     4.2015E-5       1.00000       0.00000  