nutrients.sol: written by SWAT+ editor v2.1.0 on 2023-05-02 16:02 for SWAT+ rev.60.5.4
name                    exp_co         lab_p       nitrate    fr_hum_act       hum_c_n       hum_c_p        inorgp    watersol_p         h3a_p     mehlich_p  bray_strong_p  description
soilnut1               0.00050       5.00000       7.00000       0.02000      10.00000      80.00000       3.50000       0.15000       0.25000       1.20000       0.85000             
snut_hru0001           0.00050      19.16031       7.00000       0.02000      10.00000      80.00000       3.50000       0.15000       0.25000       1.20000       0.85000             
snut_hru0002           0.00050      16.72862       7.00000       0.02000      10.00000      80.00000       3.50000       0.15000       0.25000       1.20000       0.85000             
snut_hru0003           0.00050      15.37391       7.00000       0.02000      10.00000      80.00000       3.50000       0.15000       0.25000       1.20000       0.85000             
snut_hru0004           0.00050      20.75449       7.00000       0.02000      10.00000      80.00000       3.50000       0.15000       0.25000       1.20000       0.85000             
snut_hru0005           0.00050      10.08537       7.00000       0.02000      10.00000      80.00000       3.50000       0.15000       0.25000       1.20000       0.85000             
snut_hru0006           0.00050      10.92308       7.00000       0.02000      10.00000      80.00000       3.50000       0.15000       0.25000       1.20000       0.85000             
snut_hru0007           0.00050      10.74995       7.00000       0.02000      10.00000      80.00000       3.50000       0.15000       0.25000       1.20000       0.85000             
snut_hru0008           0.00050      10.82998       7.00000       0.02000      10.00000      80.00000       3.50000       0.15000       0.25000       1.20000       0.85000             
snut_hru0009           0.00050      16.00000       7.00000       0.02000      10.00000      80.00000       3.50000       0.15000       0.25000       1.20000       0.85000             
snut_hru0010           0.00050      16.61168       7.00000       0.02000      10.00000      80.00000       3.50000       0.15000       0.25000       1.20000       0.85000             
snut_hru0011           0.00050      21.38567       7.00000       0.02000      10.00000      80.00000       3.50000       0.15000       0.25000       1.20000       0.85000             
snut_hru0012           0.00050      21.54137       7.00000       0.02000      10.00000      80.00000       3.50000       0.15000       0.25000       1.20000       0.85000             
snut_hru0013           0.00050      24.87202       7.00000       0.02000      10.00000      80.00000       3.50000       0.15000       0.25000       1.20000       0.85000             
snut_hru0014           0.00050      23.34868       7.00000       0.02000      10.00000      80.00000       3.50000       0.15000       0.25000       1.20000       0.85000             
snut_hru0015           0.00050      31.03945       7.00000       0.02000      10.00000      80.00000       3.50000       0.15000       0.25000       1.20000       0.85000             
snut_hru0016           0.00050      33.80604       7.00000       0.02000      10.00000      80.00000       3.50000       0.15000       0.25000       1.20000       0.85000             
snut_hru0017           0.00050       7.88889       7.00000       0.02000      10.00000      80.00000       3.50000       0.15000       0.25000       1.20000       0.85000             
snut_hru0018           0.00050       8.00000       7.00000       0.02000      10.00000      80.00000       3.50000       0.15000       0.25000       1.20000       0.85000             
snut_hru0019           0.00050       7.66667       7.00000       0.02000      10.00000      80.00000       3.50000       0.15000       0.25000       1.20000       0.85000             
snut_hru0020           0.00050       8.00000       7.00000       0.02000      10.00000      80.00000       3.50000       0.15000       0.25000       1.20000       0.85000             
snut_hru0021           0.00050       8.00000       7.00000       0.02000      10.00000      80.00000       3.50000       0.15000       0.25000       1.20000       0.85000             
snut_hru0022           0.00050       7.79167       7.00000       0.02000      10.00000      80.00000       3.50000       0.15000       0.25000       1.20000       0.85000             
snut_hru0023           0.00050       8.00000       7.00000       0.02000      10.00000      80.00000       3.50000       0.15000       0.25000       1.20000       0.85000             
snut_hru0024           0.00050       8.00000       7.00000       0.02000      10.00000      80.00000       3.50000       0.15000       0.25000       1.20000       0.85000             
snut_hru0025           0.00050       7.95062       7.00000       0.02000      10.00000      80.00000       3.50000       0.15000       0.25000       1.20000       0.85000             
snut_hru0026           0.00050       8.00000       7.00000       0.02000      10.00000      80.00000       3.50000       0.15000       0.25000       1.20000       0.85000             
snut_hru0027           0.00050       8.00000       7.00000       0.02000      10.00000      80.00000       3.50000       0.15000       0.25000       1.20000       0.85000             
snut_hru0028           0.00050       7.67885       7.00000       0.02000      10.00000      80.00000       3.50000       0.15000       0.25000       1.20000       0.85000             
snut_hru0029           0.00050       7.48305       7.00000       0.02000      10.00000      80.00000       3.50000       0.15000       0.25000       1.20000       0.85000             
snut_hru0030           0.00050       8.44565       7.00000       0.02000      10.00000      80.00000       3.50000       0.15000       0.25000       1.20000       0.85000             
snut_hru0031           0.00050       8.39286       7.00000       0.02000      10.00000      80.00000       3.50000       0.15000       0.25000       1.20000       0.85000             
snut_hru0032           0.00050      11.23132       7.00000       0.02000      10.00000      80.00000       3.50000       0.15000       0.25000       1.20000       0.85000             
snut_hru0033           0.00050      26.55001       7.00000       0.02000      10.00000      80.00000       3.50000       0.15000       0.25000       1.20000       0.85000             
snut_hru0034           0.00050      26.00000       7.00000       0.02000      10.00000      80.00000       3.50000       0.15000       0.25000       1.20000       0.85000             
snut_hru0035           0.00050      25.00000       7.00000       0.02000      10.00000      80.00000       3.50000       0.15000       0.25000       1.20000       0.85000             
snut_hru0036           0.00050      25.07360       7.00000       0.02000      10.00000      80.00000       3.50000       0.15000       0.25000       1.20000       0.85000             
snut_hru0037           0.00050      24.80769       7.00000       0.02000      10.00000      80.00000       3.50000       0.15000       0.25000       1.20000       0.85000             
snut_hru0038           0.00050      23.61069       7.00000       0.02000      10.00000      80.00000       3.50000       0.15000       0.25000       1.20000       0.85000             
snut_hru0039           0.00050      25.26446       7.00000       0.02000      10.00000      80.00000       3.50000       0.15000       0.25000       1.20000       0.85000             
snut_hru0040           0.00050      30.60037       7.00000       0.02000      10.00000      80.00000       3.50000       0.15000       0.25000       1.20000       0.85000             
snut_hru0041           0.00050      31.97329       7.00000       0.02000      10.00000      80.00000       3.50000       0.15000       0.25000       1.20000       0.85000             
snut_hru0042           0.00050      24.04800       7.00000       0.02000      10.00000      80.00000       3.50000       0.15000       0.25000       1.20000       0.85000             
snut_hru0043           0.00050      24.20261       7.00000       0.02000      10.00000      80.00000       3.50000       0.15000       0.25000       1.20000       0.85000             
snut_hru0044           0.00050      23.68474       7.00000       0.02000      10.00000      80.00000       3.50000       0.15000       0.25000       1.20000       0.85000             
snut_hru0045           0.00050      24.00000       7.00000       0.02000      10.00000      80.00000       3.50000       0.15000       0.25000       1.20000       0.85000             
snut_hru0046           0.00050      21.00000       7.00000       0.02000      10.00000      80.00000       3.50000       0.15000       0.25000       1.20000       0.85000             
snut_hru0047           0.00050      23.31579       7.00000       0.02000      10.00000      80.00000       3.50000       0.15000       0.25000       1.20000       0.85000             
snut_hru0048           0.00050      23.95161       7.00000       0.02000      10.00000      80.00000       3.50000       0.15000       0.25000       1.20000       0.85000             
snut_hru0049           0.00050      23.37143       7.00000       0.02000      10.00000      80.00000       3.50000       0.15000       0.25000       1.20000       0.85000             
snut_hru0050           0.00050      21.53061       7.00000       0.02000      10.00000      80.00000       3.50000       0.15000       0.25000       1.20000       0.85000             
snut_hru0051           0.00050      22.66029       7.00000       0.02000      10.00000      80.00000       3.50000       0.15000       0.25000       1.20000       0.85000             
snut_hru0052           0.00050      27.00000       7.00000       0.02000      10.00000      80.00000       3.50000       0.15000       0.25000       1.20000       0.85000             
snut_hru0053           0.00050      13.00000       7.00000       0.02000      10.00000      80.00000       3.50000       0.15000       0.25000       1.20000       0.85000             
snut_hru0054           0.00050      11.49587       7.00000       0.02000      10.00000      80.00000       3.50000       0.15000       0.25000       1.20000       0.85000             
snut_hru0055           0.00050      10.30948       7.00000       0.02000      10.00000      80.00000       3.50000       0.15000       0.25000       1.20000       0.85000             
snut_hru0056           0.00050      12.01695       7.00000       0.02000      10.00000      80.00000       3.50000       0.15000       0.25000       1.20000       0.85000             
snut_hru0057           0.00050      29.40210       7.00000       0.02000      10.00000      80.00000       3.50000       0.15000       0.25000       1.20000       0.85000             
snut_hru0058           0.00050      23.58824       7.00000       0.02000      10.00000      80.00000       3.50000       0.15000       0.25000       1.20000       0.85000             
snut_hru0059           0.00050      24.10182       7.00000       0.02000      10.00000      80.00000       3.50000       0.15000       0.25000       1.20000       0.85000             
snut_hru0060           0.00050      23.26038       7.00000       0.02000      10.00000      80.00000       3.50000       0.15000       0.25000       1.20000       0.85000             
snut_hru0061           0.00050      24.39025       7.00000       0.02000      10.00000      80.00000       3.50000       0.15000       0.25000       1.20000       0.85000             
snut_hru0062           0.00050      29.82738       7.00000       0.02000      10.00000      80.00000       3.50000       0.15000       0.25000       1.20000       0.85000             
snut_hru0063           0.00050      26.55172       7.00000       0.02000      10.00000      80.00000       3.50000       0.15000       0.25000       1.20000       0.85000             
snut_hru0064           0.00050      27.41026       7.00000       0.02000      10.00000      80.00000       3.50000       0.15000       0.25000       1.20000       0.85000             
snut_hru0065           0.00050      31.01515       7.00000       0.02000      10.00000      80.00000       3.50000       0.15000       0.25000       1.20000       0.85000             
snut_hru0066           0.00050      31.00000       7.00000       0.02000      10.00000      80.00000       3.50000       0.15000       0.25000       1.20000       0.85000             
snut_hru0067           0.00050      31.00000       7.00000       0.02000      10.00000      80.00000       3.50000       0.15000       0.25000       1.20000       0.85000             
snut_hru0068           0.00050      31.00000       7.00000       0.02000      10.00000      80.00000       3.50000       0.15000       0.25000       1.20000       0.85000             
snut_hru0069           0.00050      27.89359       7.00000       0.02000      10.00000      80.00000       3.50000       0.15000       0.25000       1.20000       0.85000             
snut_hru0070           0.00050      28.85206       7.00000       0.02000      10.00000      80.00000       3.50000       0.15000       0.25000       1.20000       0.85000             
snut_hru0071           0.00050      28.80035       7.00000       0.02000      10.00000      80.00000       3.50000       0.15000       0.25000       1.20000       0.85000             
snut_hru0072           0.00050      30.02051       7.00000       0.02000      10.00000      80.00000       3.50000       0.15000       0.25000       1.20000       0.85000             
snut_hru0073           0.00050      26.00000       7.00000       0.02000      10.00000      80.00000       3.50000       0.15000       0.25000       1.20000       0.85000             
snut_hru0074           0.00050      26.00000       7.00000       0.02000      10.00000      80.00000       3.50000       0.15000       0.25000       1.20000       0.85000             
snut_hru0075           0.00050      26.00000       7.00000       0.02000      10.00000      80.00000       3.50000       0.15000       0.25000       1.20000       0.85000             
snut_hru0076           0.00050      28.01460       7.00000       0.02000      10.00000      80.00000       3.50000       0.15000       0.25000       1.20000       0.85000             
snut_hru0077           0.00050      23.59642       7.00000       0.02000      10.00000      80.00000       3.50000       0.15000       0.25000       1.20000       0.85000             
snut_hru0078           0.00050      16.00000       7.00000       0.02000      10.00000      80.00000       3.50000       0.15000       0.25000       1.20000       0.85000             
snut_hru0079           0.00050      17.35204       7.00000       0.02000      10.00000      80.00000       3.50000       0.15000       0.25000       1.20000       0.85000             
snut_hru0080           0.00050      17.00000       7.00000       0.02000      10.00000      80.00000       3.50000       0.15000       0.25000       1.20000       0.85000             
snut_hru0081           0.00050      31.16963       7.00000       0.02000      10.00000      80.00000       3.50000       0.15000       0.25000       1.20000       0.85000             
snut_hru0082           0.00050      29.00000       7.00000       0.02000      10.00000      80.00000       3.50000       0.15000       0.25000       1.20000       0.85000             
snut_hru0083           0.00050      29.00000       7.00000       0.02000      10.00000      80.00000       3.50000       0.15000       0.25000       1.20000       0.85000             
snut_hru0084           0.00050      29.00000       7.00000       0.02000      10.00000      80.00000       3.50000       0.15000       0.25000       1.20000       0.85000             
snut_hru0085           0.00050      11.28385       7.00000       0.02000      10.00000      80.00000       3.50000       0.15000       0.25000       1.20000       0.85000             
snut_hru0086           0.00050      12.52123       7.00000       0.02000      10.00000      80.00000       3.50000       0.15000       0.25000       1.20000       0.85000             
snut_hru0087           0.00050      13.61367       7.00000       0.02000      10.00000      80.00000       3.50000       0.15000       0.25000       1.20000       0.85000             
snut_hru0088           0.00050      13.45671       7.00000       0.02000      10.00000      80.00000       3.50000       0.15000       0.25000       1.20000       0.85000             
snut_hru0089           0.00050      11.82428       7.00000       0.02000      10.00000      80.00000       3.50000       0.15000       0.25000       1.20000       0.85000             
snut_hru0090           0.00050      16.46528       7.00000       0.02000      10.00000      80.00000       3.50000       0.15000       0.25000       1.20000       0.85000             
snut_hru0091           0.00050      33.34153       7.00000       0.02000      10.00000      80.00000       3.50000       0.15000       0.25000       1.20000       0.85000             
snut_hru0092           0.00050      31.30415       7.00000       0.02000      10.00000      80.00000       3.50000       0.15000       0.25000       1.20000       0.85000             
snut_hru0093           0.00050      13.51169       7.00000       0.02000      10.00000      80.00000       3.50000       0.15000       0.25000       1.20000       0.85000             
snut_hru0094           0.00050      15.28240       7.00000       0.02000      10.00000      80.00000       3.50000       0.15000       0.25000       1.20000       0.85000             
snut_hru0095           0.00050      18.34818       7.00000       0.02000      10.00000      80.00000       3.50000       0.15000       0.25000       1.20000       0.85000             
snut_hru0096           0.00050      13.01753       7.00000       0.02000      10.00000      80.00000       3.50000       0.15000       0.25000       1.20000       0.85000             
snut_hru0097           0.00050      10.00000       7.00000       0.02000      10.00000      80.00000       3.50000       0.15000       0.25000       1.20000       0.85000             
snut_hru0098           0.00050      14.92229       7.00000       0.02000      10.00000      80.00000       3.50000       0.15000       0.25000       1.20000       0.85000             
snut_hru0099           0.00050       9.47689       7.00000       0.02000      10.00000      80.00000       3.50000       0.15000       0.25000       1.20000       0.85000             
snut_hru0100           0.00050      11.03867       7.00000       0.02000      10.00000      80.00000       3.50000       0.15000       0.25000       1.20000       0.85000             
snut_hru0101           0.00050      19.00000       7.00000       0.02000      10.00000      80.00000       3.50000       0.15000       0.25000       1.20000       0.85000             
snut_hru0102           0.00050       8.00000       7.00000       0.02000      10.00000      80.00000       3.50000       0.15000       0.25000       1.20000       0.85000             
snut_hru0103           0.00050      11.95000       7.00000       0.02000      10.00000      80.00000       3.50000       0.15000       0.25000       1.20000       0.85000             
snut_hru0104           0.00050      11.55245       7.00000       0.02000      10.00000      80.00000       3.50000       0.15000       0.25000       1.20000       0.85000             
snut_hru0105           0.00050      11.23809       7.00000       0.02000      10.00000      80.00000       3.50000       0.15000       0.25000       1.20000       0.85000             
snut_hru0106           0.00050      11.45000       7.00000       0.02000      10.00000      80.00000       3.50000       0.15000       0.25000       1.20000       0.85000             
snut_hru0107           0.00050      12.00000       7.00000       0.02000      10.00000      80.00000       3.50000       0.15000       0.25000       1.20000       0.85000             
snut_hru0108           0.00050      12.46151       7.00000       0.02000      10.00000      80.00000       3.50000       0.15000       0.25000       1.20000       0.85000             
snut_hru0109           0.00050      13.70317       7.00000       0.02000      10.00000      80.00000       3.50000       0.15000       0.25000       1.20000       0.85000             
snut_hru0110           0.00050      10.65000       7.00000       0.02000      10.00000      80.00000       3.50000       0.15000       0.25000       1.20000       0.85000             
snut_hru0111           0.00050      12.83333       7.00000       0.02000      10.00000      80.00000       3.50000       0.15000       0.25000       1.20000       0.85000             
snut_hru0112           0.00050       9.07856       7.00000       0.02000      10.00000      80.00000       3.50000       0.15000       0.25000       1.20000       0.85000             
snut_hru0113           0.00050      17.19316       7.00000       0.02000      10.00000      80.00000       3.50000       0.15000       0.25000       1.20000       0.85000             
snut_hru0114           0.00050       9.93798       7.00000       0.02000      10.00000      80.00000       3.50000       0.15000       0.25000       1.20000       0.85000             
snut_hru0115           0.00050      11.92253       7.00000       0.02000      10.00000      80.00000       3.50000       0.15000       0.25000       1.20000       0.85000             
snut_hru0116           0.00050      11.00000       7.00000       0.02000      10.00000      80.00000       3.50000       0.15000       0.25000       1.20000       0.85000             
snut_hru0117           0.00050      14.00000       7.00000       0.02000      10.00000      80.00000       3.50000       0.15000       0.25000       1.20000       0.85000             
snut_hru0118           0.00050      18.05556       7.00000       0.02000      10.00000      80.00000       3.50000       0.15000       0.25000       1.20000       0.85000             
snut_hru0119           0.00050      13.06143       7.00000       0.02000      10.00000      80.00000       3.50000       0.15000       0.25000       1.20000       0.85000             
snut_hru0120           0.00050      12.82143       7.00000       0.02000      10.00000      80.00000       3.50000       0.15000       0.25000       1.20000       0.85000             
snut_hru0121           0.00050      19.47808       7.00000       0.02000      10.00000      80.00000       3.50000       0.15000       0.25000       1.20000       0.85000             
snut_hru0122           0.00050      16.96174       7.00000       0.02000      10.00000      80.00000       3.50000       0.15000       0.25000       1.20000       0.85000             
snut_hru0123           0.00050      19.68927       7.00000       0.02000      10.00000      80.00000       3.50000       0.15000       0.25000       1.20000       0.85000             
snut_hru0124           0.00050      18.94948       7.00000       0.02000      10.00000      80.00000       3.50000       0.15000       0.25000       1.20000       0.85000             
snut_hru0125           0.00050      19.00000       7.00000       0.02000      10.00000      80.00000       3.50000       0.15000       0.25000       1.20000       0.85000             
snut_hru0126           0.00050       8.31296       7.00000       0.02000      10.00000      80.00000       3.50000       0.15000       0.25000       1.20000       0.85000             
snut_hru0127           0.00050       7.73077       7.00000       0.02000      10.00000      80.00000       3.50000       0.15000       0.25000       1.20000       0.85000             
snut_hru0128           0.00050       7.69025       7.00000       0.02000      10.00000      80.00000       3.50000       0.15000       0.25000       1.20000       0.85000             
snut_hru0129           0.00050      14.93853       7.00000       0.02000      10.00000      80.00000       3.50000       0.15000       0.25000       1.20000       0.85000             
snut_hru0130           0.00050      11.16632       7.00000       0.02000      10.00000      80.00000       3.50000       0.15000       0.25000       1.20000       0.85000             
snut_hru0131           0.00050      12.46082       7.00000       0.02000      10.00000      80.00000       3.50000       0.15000       0.25000       1.20000       0.85000             
snut_hru0132           0.00050      22.89503       7.00000       0.02000      10.00000      80.00000       3.50000       0.15000       0.25000       1.20000       0.85000             
snut_hru0133           0.00050      26.28634       7.00000       0.02000      10.00000      80.00000       3.50000       0.15000       0.25000       1.20000       0.85000             
snut_hru0134           0.00050      26.90698       7.00000       0.02000      10.00000      80.00000       3.50000       0.15000       0.25000       1.20000       0.85000             
snut_hru0135           0.00050      26.84623       7.00000       0.02000      10.00000      80.00000       3.50000       0.15000       0.25000       1.20000       0.85000             
snut_hru0136           0.00050      25.66360       7.00000       0.02000      10.00000      80.00000       3.50000       0.15000       0.25000       1.20000       0.85000             
snut_hru0137           0.00050      26.61297       7.00000       0.02000      10.00000      80.00000       3.50000       0.15000       0.25000       1.20000       0.85000             
snut_hru0138           0.00050      28.47208       7.00000       0.02000      10.00000      80.00000       3.50000       0.15000       0.25000       1.20000       0.85000             
snut_hru0139           0.00050      26.40574       7.00000       0.02000      10.00000      80.00000       3.50000       0.15000       0.25000       1.20000       0.85000             
snut_hru0140           0.00050      26.00000       7.00000       0.02000      10.00000      80.00000       3.50000       0.15000       0.25000       1.20000       0.85000             
snut_hru0141           0.00050      27.99786       7.00000       0.02000      10.00000      80.00000       3.50000       0.15000       0.25000       1.20000       0.85000             
snut_hru0142           0.00050      26.36538       7.00000       0.02000      10.00000      80.00000       3.50000       0.15000       0.25000       1.20000       0.85000             
snut_hru0143           0.00050      26.97180       7.00000       0.02000      10.00000      80.00000       3.50000       0.15000       0.25000       1.20000       0.85000             
snut_hru0144           0.00050      27.71660       7.00000       0.02000      10.00000      80.00000       3.50000       0.15000       0.25000       1.20000       0.85000             
snut_hru0145           0.00050      24.02774       7.00000       0.02000      10.00000      80.00000       3.50000       0.15000       0.25000       1.20000       0.85000             
snut_hru0146           0.00050      24.33343       7.00000       0.02000      10.00000      80.00000       3.50000       0.15000       0.25000       1.20000       0.85000             
snut_hru0147           0.00050      25.22597       7.00000       0.02000      10.00000      80.00000       3.50000       0.15000       0.25000       1.20000       0.85000             
snut_hru0148           0.00050       9.13997       7.00000       0.02000      10.00000      80.00000       3.50000       0.15000       0.25000       1.20000       0.85000             
snut_hru0149           0.00050      13.20134       7.00000       0.02000      10.00000      80.00000       3.50000       0.15000       0.25000       1.20000       0.85000             
snut_hru0150           0.00050      12.66383       7.00000       0.02000      10.00000      80.00000       3.50000       0.15000       0.25000       1.20000       0.85000             
snut_hru0151           0.00050      14.28251       7.00000       0.02000      10.00000      80.00000       3.50000       0.15000       0.25000       1.20000       0.85000             
snut_hru0152           0.00050      12.12074       7.00000       0.02000      10.00000      80.00000       3.50000       0.15000       0.25000       1.20000       0.85000             
snut_hru0153           0.00050      11.63045       7.00000       0.02000      10.00000      80.00000       3.50000       0.15000       0.25000       1.20000       0.85000             
snut_hru0154           0.00050      14.18020       7.00000       0.02000      10.00000      80.00000       3.50000       0.15000       0.25000       1.20000       0.85000             
snut_hru0155           0.00050      13.16271       7.00000       0.02000      10.00000      80.00000       3.50000       0.15000       0.25000       1.20000       0.85000             
snut_hru0156           0.00050      12.02883       7.00000       0.02000      10.00000      80.00000       3.50000       0.15000       0.25000       1.20000       0.85000             
snut_hru0157           0.00050      21.99333       7.00000       0.02000      10.00000      80.00000       3.50000       0.15000       0.25000       1.20000       0.85000             
snut_hru0158           0.00050      29.91781       7.00000       0.02000      10.00000      80.00000       3.50000       0.15000       0.25000       1.20000       0.85000             
snut_hru0159           0.00050      28.83333       7.00000       0.02000      10.00000      80.00000       3.50000       0.15000       0.25000       1.20000       0.85000             
snut_hru0160           0.00050      28.87654       7.00000       0.02000      10.00000      80.00000       3.50000       0.15000       0.25000       1.20000       0.85000             