object.cnt: file was written by SWATprepR R package 2024-02-13 17:38:46
name                     ls_area    tot_area         obj         hru        lhru         rtu       mfl       aqu       cha       res       rec      exco       dlr       can       pmp       out      lcha     aqu2d       hrd       wro
CS12                  7143.49946  7143.49946        4948        2327           0        2327         0         1         0        80         3         0         0         0         0         0       210         0         0         0
