landuse.lum: written by SWAT+ editor v2.1.0 on 2023-05-02 16:02 for SWAT+ rev.60.5.4
name                         cal_group          plnt_com               mgt               cn2         cons_prac             urban            urb_ro           ov_mann              tile               sep               vfs              grww               bmp  
field_1_lum                       null         nopl_comm              null              null              null              null              null              null              null              null              null              null              null  
field_10_lum                      null         nopl_comm              null              null              null              null              null              null              null              null              null              null              null  
field_100_lum                     null         nopl_comm              null              null              null              null              null              null              null              null              null              null              null  
field_1000_drn_lum                null         nopl_comm              null              null              null              null              null              null         mw24_1000              null              null              null              null  
field_1001_lum                    null         nopl_comm              null              null              null              null              null              null              null              null              null              null              null  
field_1002_drn_lum                null         nopl_comm              null              null              null              null              null              null         mw24_1000              null              null              null              null  
field_1003_lum                    null         nopl_comm              null              null              null              null              null              null              null              null              null              null              null  
field_1004_lum                    null         nopl_comm              null              null              null              null              null              null              null              null              null              null              null  
field_1005_lum                    null         nopl_comm              null              null              null              null              null              null              null              null              null              null              null  
field_1006_drn_lum                null         nopl_comm              null              null              null              null              null              null         mw24_1000              null              null              null              null  
field_1007_lum                    null         nopl_comm              null              null              null              null              null              null              null              null              null              null              null  
field_1008_lum                    null         nopl_comm              null              null              null              null              null              null              null              null              null              null              null  
field_1009_drn_lum                null         nopl_comm              null              null              null              null              null              null         mw24_1000              null              null              null              null  
field_101_drn_lum                 null         nopl_comm              null              null              null              null              null              null         mw24_1000              null              null              null              null  
field_1010_drn_lum                null         nopl_comm              null              null              null              null              null              null         mw24_1000              null              null              null              null  
field_1011_lum                    null         nopl_comm              null              null              null              null              null              null              null              null              null              null              null  
field_1012_lum                    null         nopl_comm              null              null              null              null              null              null              null              null              null              null              null  
field_1013_lum                    null         nopl_comm              null              null              null              null              null              null              null              null              null              null              null  
field_1014_lum                    null         nopl_comm              null              null              null              null              null              null              null              null              null              null              null  
field_1015_lum                    null         nopl_comm              null              null              null              null              null              null              null              null              null              null              null  
field_1016_lum                    null         nopl_comm              null              null              null              null              null              null              null              null              null              null              null  
field_1017_lum                    null         nopl_comm              null              null              null              null              null              null              null              null              null              null              null  
field_1018_lum                    null         nopl_comm              null              null              null              null              null              null              null              null              null              null              null  
field_1019_lum                    null         nopl_comm              null              null              null              null              null              null              null              null              null              null              null  
field_102_lum                     null         nopl_comm              null              null              null              null              null              null              null              null              null              null              null  
field_1020_lum                    null         nopl_comm              null              null              null              null              null              null              null              null              null              null              null  
field_1021_lum                    null         nopl_comm              null              null              null              null              null              null              null              null              null              null              null  
field_1022_lum                    null         nopl_comm              null              null              null              null              null              null              null              null              null              null              null  
field_1023_lum                    null         nopl_comm              null              null              null              null              null              null              null              null              null              null              null  
field_1024_lum                    null         nopl_comm              null              null              null              null              null              null              null              null              null              null              null  
field_1025_drn_lum                null         nopl_comm              null              null              null              null              null              null         mw24_1000              null              null              null              null  
field_1026_lum                    null         nopl_comm              null              null              null              null              null              null              null              null              null              null              null  
field_1027_lum                    null         nopl_comm              null              null              null              null              null              null              null              null              null              null              null  
field_1028_lum                    null         nopl_comm              null              null              null              null              null              null              null              null              null              null              null  
field_1029_lum                    null         nopl_comm              null              null              null              null              null              null              null              null              null              null              null  
field_103_lum                     null         nopl_comm              null              null              null              null              null              null              null              null              null              null              null  
field_1030_lum                    null         nopl_comm              null              null              null              null              null              null              null              null              null              null              null  
field_1031_lum                    null         nopl_comm              null              null              null              null              null              null              null              null              null              null              null  
field_1032_drn_lum                null         nopl_comm              null              null              null              null              null              null         mw24_1000              null              null              null              null  
field_1033_lum                    null         nopl_comm              null              null              null              null              null              null              null              null              null              null              null  
field_1034_lum                    null         nopl_comm              null              null              null              null              null              null              null              null              null              null              null  
field_1035_lum                    null         nopl_comm              null              null              null              null              null              null              null              null              null              null              null  
field_1036_lum                    null         nopl_comm              null              null              null              null              null              null              null              null              null              null              null  
field_1037_lum                    null         nopl_comm              null              null              null              null              null              null              null              null              null              null              null  
field_1038_lum                    null         nopl_comm              null              null              null              null              null              null              null              null              null              null              null  
field_1039_lum                    null         nopl_comm              null              null              null              null              null              null              null              null              null              null              null  
field_104_lum                     null         nopl_comm              null              null              null              null              null              null              null              null              null              null              null  
field_1040_lum                    null         nopl_comm              null              null              null              null              null              null              null              null              null              null              null  
field_1041_drn_lum                null         nopl_comm              null              null              null              null              null              null         mw24_1000              null              null              null              null  
field_1042_drn_lum                null         nopl_comm              null              null              null              null              null              null         mw24_1000              null              null              null              null  
field_105_lum                     null         nopl_comm              null              null              null              null              null              null              null              null              null              null              null  
field_106_lum                     null         nopl_comm              null              null              null              null              null              null              null              null              null              null              null  
field_107_lum                     null         nopl_comm              null              null              null              null              null              null              null              null              null              null              null  
field_108_lum                     null         nopl_comm              null              null              null              null              null              null              null              null              null              null              null  
field_109_lum                     null         nopl_comm              null              null              null              null              null              null              null              null              null              null              null  
field_11_lum                      null         nopl_comm              null              null              null              null              null              null              null              null              null              null              null  
field_110_lum                     null         nopl_comm              null              null              null              null              null              null              null              null              null              null              null  
field_111_drn_lum                 null         nopl_comm              null              null              null              null              null              null         mw24_1000              null              null              null              null  
field_112_lum                     null         nopl_comm              null              null              null              null              null              null              null              null              null              null              null  
field_113_lum                     null         nopl_comm              null              null              null              null              null              null              null              null              null              null              null  
field_114_drn_lum                 null         nopl_comm              null              null              null              null              null              null         mw24_1000              null              null              null              null  
field_115_lum                     null         nopl_comm              null              null              null              null              null              null              null              null              null              null              null  
field_116_drn_lum                 null         nopl_comm              null              null              null              null              null              null         mw24_1000              null              null              null              null  
field_117_lum                     null         nopl_comm              null              null              null              null              null              null              null              null              null              null              null  
field_118_drn_lum                 null         nopl_comm              null              null              null              null              null              null         mw24_1000              null              null              null              null  
field_119_lum                     null         nopl_comm              null              null              null              null              null              null              null              null              null              null              null  
field_12_lum                      null         nopl_comm              null              null              null              null              null              null              null              null              null              null              null  
field_120_lum                     null         nopl_comm              null              null              null              null              null              null              null              null              null              null              null  
field_121_drn_lum                 null         nopl_comm              null              null              null              null              null              null         mw24_1000              null              null              null              null  
field_122_drn_lum                 null         nopl_comm              null              null              null              null              null              null         mw24_1000              null              null              null              null  
field_123_drn_lum                 null         nopl_comm              null              null              null              null              null              null         mw24_1000              null              null              null              null  
field_124_lum                     null         nopl_comm              null              null              null              null              null              null              null              null              null              null              null  
field_125_lum                     null         nopl_comm              null              null              null              null              null              null              null              null              null              null              null  
field_126_drn_lum                 null         nopl_comm              null              null              null              null              null              null         mw24_1000              null              null              null              null  
field_127_drn_lum                 null         nopl_comm              null              null              null              null              null              null         mw24_1000              null              null              null              null  
field_128_lum                     null         nopl_comm              null              null              null              null              null              null              null              null              null              null              null  
field_129_drn_lum                 null         nopl_comm              null              null              null              null              null              null         mw24_1000              null              null              null              null  
field_13_lum                      null         nopl_comm              null              null              null              null              null              null              null              null              null              null              null  
field_130_lum                     null         nopl_comm              null              null              null              null              null              null              null              null              null              null              null  
field_131_drn_lum                 null         nopl_comm              null              null              null              null              null              null         mw24_1000              null              null              null              null  
field_132_lum                     null         nopl_comm              null              null              null              null              null              null              null              null              null              null              null  
field_133_drn_lum                 null         nopl_comm              null              null              null              null              null              null         mw24_1000              null              null              null              null  
field_134_lum                     null         nopl_comm              null              null              null              null              null              null              null              null              null              null              null  
field_135_lum                     null         nopl_comm              null              null              null              null              null              null              null              null              null              null              null  
field_136_lum                     null         nopl_comm              null              null              null              null              null              null              null              null              null              null              null  
field_137_drn_lum                 null         nopl_comm              null              null              null              null              null              null         mw24_1000              null              null              null              null  
field_138_lum                     null         nopl_comm              null              null              null              null              null              null              null              null              null              null              null  
field_139_drn_lum                 null         nopl_comm              null              null              null              null              null              null         mw24_1000              null              null              null              null  
field_14_lum                      null         nopl_comm              null              null              null              null              null              null              null              null              null              null              null  
field_140_drn_lum                 null         nopl_comm              null              null              null              null              null              null         mw24_1000              null              null              null              null  
field_141_lum                     null         nopl_comm              null              null              null              null              null              null              null              null              null              null              null  
field_142_lum                     null         nopl_comm              null              null              null              null              null              null              null              null              null              null              null  
field_143_drn_lum                 null         nopl_comm              null              null              null              null              null              null         mw24_1000              null              null              null              null  
field_144_lum                     null         nopl_comm              null              null              null              null              null              null              null              null              null              null              null  
field_145_drn_lum                 null         nopl_comm              null              null              null              null              null              null         mw24_1000              null              null              null              null  
field_146_drn_lum                 null         nopl_comm              null              null              null              null              null              null         mw24_1000              null              null              null              null  
field_147_drn_lum                 null         nopl_comm              null              null              null              null              null              null         mw24_1000              null              null              null              null  
field_148_lum                     null         nopl_comm              null              null              null              null              null              null              null              null              null              null              null  
field_149_lum                     null         nopl_comm              null              null              null              null              null              null              null              null              null              null              null  
field_15_lum                      null         nopl_comm              null              null              null              null              null              null              null              null              null              null              null  
field_150_drn_lum                 null         nopl_comm              null              null              null              null              null              null         mw24_1000              null              null              null              null  
field_151_lum                     null         nopl_comm              null              null              null              null              null              null              null              null              null              null              null  
field_152_lum                     null         nopl_comm              null              null              null              null              null              null              null              null              null              null              null  
field_153_lum                     null         nopl_comm              null              null              null              null              null              null              null              null              null              null              null  
field_154_lum                     null         nopl_comm              null              null              null              null              null              null              null              null              null              null              null  
field_155_drn_lum                 null         nopl_comm              null              null              null              null              null              null         mw24_1000              null              null              null              null  
field_156_lum                     null         nopl_comm              null              null              null              null              null              null              null              null              null              null              null  
field_157_lum                     null         nopl_comm              null              null              null              null              null              null              null              null              null              null              null  
field_158_lum                     null         nopl_comm              null              null              null              null              null              null              null              null              null              null              null  
field_159_drn_lum                 null         nopl_comm              null              null              null              null              null              null         mw24_1000              null              null              null              null  
field_16_lum                      null         nopl_comm              null              null              null              null              null              null              null              null              null              null              null  
field_160_lum                     null         nopl_comm              null              null              null              null              null              null              null              null              null              null              null  
field_161_drn_lum                 null         nopl_comm              null              null              null              null              null              null         mw24_1000              null              null              null              null  
field_162_lum                     null         nopl_comm              null              null              null              null              null              null              null              null              null              null              null  
field_163_lum                     null         nopl_comm              null              null              null              null              null              null              null              null              null              null              null  