pcp.cli: Precipitation file names - file written by SWATprepR R package 2024-03-18 08:29:28
filename
sta_id1.pcp
