pcp.cli: Precipitation file names - file written by SWATprepR R package 2024-08-29 12:40:26
filename
sta_id1.pcp
sta_id10.pcp
sta_id11.pcp
sta_id12.pcp
sta_id13.pcp
sta_id14.pcp
sta_id15.pcp
sta_id16.pcp
sta_id17.pcp
sta_id18.pcp
sta_id19.pcp
sta_id2.pcp
sta_id3.pcp
sta_id4.pcp
sta_id5.pcp
sta_id6.pcp
sta_id7.pcp
sta_id8.pcp
sta_id9.pcp
