plant.ini: written by SWAT+ editor v2.1.0 on 2023-05-02 16:02 for SWAT+ rev.60.5.4 and edited with SWATfarmR 2.0.5 on 2024-03-18 16:29:35
pcom_name          plt_cnt  rot_yr_ini          plt_name     lc_status      lai_init       bm_init      phu_init      plnt_pop      yrs_init      rsd_init  
fld_1000_drn_com             4           1
                                                    wwht             y             1          1000             0             0             1          1000
                                                    barl             n             0             0             0             0             0             0
                                                    fpea             n             0             0             0             0             0             0
                                                    wira             n             0             0             0             0             0             0
field_1001_com               3           1
                                                    wwht             y             1          1000             0             0             1          1000
                                                    barl             n             0             0             0             0             0             0
                                                    wira             n             0             0             0             0             0             0
fld_1002_drn_com             4           1
                                                    wwht             y             1          1000             0             0             1          1000
                                                    barl             n             0             0             0             0             0             0
                                                    clvr             n             0             0             0             0             0             0
                                                    wira             n             0             0             0             0             0             0
field_1003_com               3           1
                                                    wwht             y             1          1000             0             0             1          1000
                                                    barl             n             0             0             0             0             0             0
                                                    wira             n             0             0             0             0             0             0
field_1004_com               3           1
                                                    wwht             y             1          1000             0             0             1          1000
                                                    barl             n             0             0             0             0             0             0
                                                    wira             n             0             0             0             0             0             0
field_1005_com               3           1
                                                    wwht             y             1          1000             0             0             1          1000
                                                    barl             n             0             0             0             0             0             0
                                                    wira             n             0             0             0             0             0             0
fld_1006_drn_com             3           1
                                                    wwht             y             1          1000             0             0             1          1000
                                                    barl             n             0             0             0             0             0             0
                                                    wira             n             0             0             0             0             0             0
field_1007_com               4           1
                                                    wwht             y             1          1000             0             0             1          1000
                                                    barl             n             0             0             0             0             0             0
                                                    fpea             n             0             0             0             0             0             0
                                                    wira             n             0             0             0             0             0             0
field_1008_com               4           1
                                                    wwht             y             1          1000             0             0             1          1000
                                                    barl             n             0             0             0             0             0             0
                                                    fpea             n             0             0             0             0             0             0
                                                    wira             n             0             0             0             0             0             0
fld_1009_drn_com             4           1
                                                    wwht             y             1          1000             0             0             1          1000
                                                    barl             n             0             0             0             0             0             0
                                                    fpea             n             0             0             0             0             0             0
                                                    wira             n             0             0             0             0             0             0
fld_1010_drn_com             4           1
                                                    wwht             y             1          1000             0             0             1          1000
                                                    barl             n             0             0             0             0             0             0
                                                    fpea             n             0             0             0             0             0             0
                                                    wira             n             0             0             0             0             0             0
field_1011_com               4           1
                                                    wwht             y             1          1000             0             0             1          1000
                                                    popy             n             0             0             0             0             0             0
                                                    barl             n             0             0             0             0             0             0
                                                    clvr             n             0             0             0             0             0             0
field_1012_com               4           1
                                                    wira             y             1          1000             0             0             1          1000
                                                    wwht             n             0             0             0             0             0             0
                                                    oats             n             0             0             0             0             0             0
                                                    wbar             n             0             0             0             0             0             0
field_1013_com               4           1
                                                    wira             y             1          1000             0             0             1          1000
                                                    wwht             n             0             0             0             0             0             0
                                                    clvr             n             0             0             0             0             0             0
                                                    wbar             n             0             0             0             0             0             0
field_1014_com               4           1
                                                    wira             y             1          1000             0             0             1          1000
                                                    wwht             n             0             0             0             0             0             0
                                                    clvr             n             0             0             0             0             0             0
                                                    wbar             n             0             0             0             0             0             0
field_1015_com               4           1
                                                    wira             y             1          1000             0             0             1          1000
                                                    wwht             n             0             0             0             0             0             0
                                                    clvr             n             0             0             0             0             0             0
                                                    wbar             n             0             0             0             0             0             0
field_1016_com               4           1
                                                    wira             y             1          1000             0             0             1          1000
                                                    wwht             n             0             0             0             0             0             0
                                                    clvr             n             0             0             0             0             0             0
                                                    wbar             n             0             0             0             0             0             0
field_1017_com               4           1
                                                    wira             y             1          1000             0             0             1          1000
                                                    wwht             n             0             0             0             0             0             0
                                                    clvr             n             0             0             0             0             0             0
                                                    wbar             n             0             0             0             0             0             0
field_1018_com               4           1
                                                    wira             y             1          1000             0             0             1          1000
                                                    wwht             n             0             0             0             0             0             0
                                                    clvr             n             0             0             0             0             0             0
                                                    wbar             n             0             0             0             0             0             0
field_1019_com               4           1
                                                    wira             y             1          1000             0             0             1          1000
                                                    wwht             n             0             0             0             0             0             0
                                                    clvr             n             0             0             0             0             0             0
                                                    wbar             n             0             0             0             0             0             0
field_1020_com               4           1
                                                    wira             y             1          1000             0             0             1          1000
                                                    wwht             n             0             0             0             0             0             0
                                                    clvr             n             0             0             0             0             0             0
                                                    wbar             n             0             0             0             0             0             0
field_1021_com               4           1
                                                    wira             y             1          1000             0             0             1          1000
                                                    wwht             n             0             0             0             0             0             0
                                                    clvr             n             0             0             0             0             0             0
                                                    wbar             n             0             0             0             0             0             0
field_1022_com               4           1
                                                    wira             y             1          1000             0             0             1          1000
                                                    wwht             n             0             0             0             0             0             0
                                                    clvr             n             0             0             0             0             0             0
                                                    wbar             n             0             0             0             0             0             0
field_1023_com               4           1
                                                    wira             y             1          1000             0             0             1          1000
                                                    wwht             n             0             0             0             0             0             0
                                                    clvr             n             0             0             0             0             0             0
                                                    wbar             n             0             0             0             0             0             0
field_1024_com               4           1
                                                    wira             y             1          1000             0             0             1          1000
                                                    wwht             n             0             0             0             0             0             0
                                                    clvr             n             0             0             0             0             0             0
                                                    wbar             n             0             0             0             0             0             0
fld_1025_drn_com             4           1
                                                    wira             y             1          1000             0             0             1          1000
                                                    wwht             n             0             0             0             0             0             0
                                                    clvr             n             0             0             0             0             0             0
                                                    wbar             n             0             0             0             0             0             0
field_1026_com               4           1
                                                    wira             y             1          1000             0             0             1          1000
                                                    wwht             n             0             0             0             0             0             0
                                                    oats             n             0             0             0             0             0             0
                                                    wbar             n             0             0             0             0             0             0
field_1027_com               3           1
                                                    wwht             y             1          1000             0             0             1          1000
                                                    clvr             n             0             0             0             0             0             0
                                                    fpea             n             0             0             0             0             0             0
field_1028_com               5           1
                                                    wwht             y             1          1000             0             0             1          1000
                                                    clvr             n             0             0             0             0             0             0
                                                    popy             n             0             0             0             0             0             0
                                                    barl             n             0             0             0             0             0             0
                                                    fpea             n             0             0             0             0             0             0
field_1031_com               4           1
                                                    wbar             y             1          1000             0             0             1          1000
                                                    wira             n             0             0             0             0             0             0
                                                    wwht             n             0             0             0             0             0             0
                                                    csil             n             0             0             0             0             0             0
fld_1032_drn_com             4           1
                                                    wbar             y             1          1000             0             0             1          1000
                                                    wira             n             0             0             0             0             0             0
                                                    wwht             n             0             0             0             0             0             0
                                                    csil             n             0             0             0             0             0             0
field_1034_com               3           1
                                                    clvr             y             1          1000             0             0             1          1000
                                                    csil             n             0             0             0             0             0             0
                                                    wwht             n             0             0             0             0             0             0
field_1035_com               5           1
                                                    wwht             y             1          1000             0             0             1          1000
                                                    wira             n             0             0             0             0             0             0
                                                    csil             n             0             0             0             0             0             0
                                                    fpea             n             0             0             0             0             0             0
                                                    clvr             n             0             0             0             0             0             0
field_1036_com               4           1
                                                    trit             y             1          1000             0             0             1          1000
                                                    wira             n             0             0             0             0             0             0
                                                    fpea             n             0             0             0             0             0             0
                                                    clvr             n             0             0             0             0             0             0
field_1037_com               5           1
                                                    wwht             y             1          1000             0             0             1          1000
                                                    wira             n             0             0             0             0             0             0
                                                    csil             n             0             0             0             0             0             0
                                                    fpea             n             0             0             0             0             0             0
                                                    clvr             n             0             0             0             0             0             0
field_1038_com               5           1
                                                    wwht             y             1          1000             0             0             1          1000
                                                    wira             n             0             0             0             0             0             0
                                                    csil             n             0             0             0             0             0             0
                                                    fpea             n             0             0             0             0             0             0
                                                    clvr             n             0             0             0             0             0             0
field_1039_com               5           1
                                                    wwht             y             1          1000             0             0             1          1000
                                                    popy             n             0             0             0             0             0             0
                                                    barl             n             0             0             0             0             0             0
                                                    clvr             n             0             0             0             0             0             0
                                                    wira             n             0             0             0             0             0             0
field_103_com                4           1
                                                    wwht             y             1          1000             0             0             1          1000
                                                    wira             n             0             0             0             0             0             0
                                                    csil             n             0             0             0             0             0             0
                                                    clvr             n             0             0             0             0             0             0
field_1040_com               5           1
                                                    wwht             y             1          1000             0             0             1          1000
                                                    popy             n             0             0             0             0             0             0
                                                    barl             n             0             0             0             0             0             0
                                                    fpea             n             0             0             0             0             0             0
                                                    wira             n             0             0             0             0             0             0
fld_1041_drn_com             5           1
                                                    wwht             y             1          1000             0             0             1          1000
                                                    popy             n             0             0             0             0             0             0
                                                    barl             n             0             0             0             0             0             0
                                                    fpea             n             0             0             0             0             0             0
                                                    wira             n             0             0             0             0             0             0
fld_1042_drn_com             5           1
                                                    wwht             y             1          1000             0             0             1          1000
                                                    popy             n             0             0             0             0             0             0
                                                    barl             n             0             0             0             0             0             0
                                                    fpea             n             0             0             0             0             0             0
                                                    wira             n             0             0             0             0             0             0
field_104_com                4           1
                                                    wwht             y             1          1000             0             0             1          1000
                                                    wbar             n             0             0             0             0             0             0
                                                    clvr             n             0             0             0             0             0             0
                                                    pota             n             0             0             0             0             0             0
field_105_com                4           1
                                                    clvr             y             1          1000             0             0             1          1000
                                                    wwht             n             0             0             0             0             0             0
                                                    wira             n             0             0             0             0             0             0
                                                    pota             n             0             0             0             0             0             0
field_106_com                1           1
                                                    clvr             y             1          1000             0             0             1          1000
field_107_com                4           1
                                                    clvr             y             1          1000             0             0             1          1000
                                                    wbar             n             0             0             0             0             0             0
                                                    wira             n             0             0             0             0             0             0
                                                    csil             n             0             0             0             0             0             0
field_108_com                5           1