recall.con: file was written by SWATprepR R package 2024-10-10 15:05:28
        id       name     gis_id       area        lat        lon       elev        rec        wst        cst       ovfl       rule    out_tot    obj_typ     obj_id    hyd_typ       frac
         1     120104          0    0.00001 49.635193 15.078744  577.74298          1       null          0          0          0          1        sdc        175        tot          1
         2     124298          0    0.00001 49.62675 15.051369  577.74298          2       null          0          0          0          1        sdc        175        tot          1
         3     120116          0    0.00001 49.644766 14.99242  577.74298          3       null          0          0          0          1        sdc        175        tot          1
