recall.con: file was written by SWATprepR R package 2024-02-13 17:38:46
        id       name     gis_id       area        lat        lon       elev        rec        wst        cst       ovfl       rule    out_tot    obj_typ     obj_id    hyd_typ       frac
         1     120104          0    0.00001  49.635193  15.078744  479.77376          1       null          0          0          0          1        sdc        140        tot          1
         2     120116          0    0.00001   49.62675  15.051369   479.7766          2       null          0          0          0          1        sdc        101        tot          1
         3     124298          0    0.00001  49.644766   14.99242  479.76851          3       null          0          0          0          1        sdc        110        tot          1
