reservoir.con: rewritten by SWATprepR R package 2024-08-29 12:40:37 for SWAT+ rev.60.5.4
      id  name                gis_id          area           lat           lon          elev       res               wst       cst      ovfl      rule   out_tot       obj_typ    obj_id       hyd_typ          frac
       1  res01                    0       0.08471      49.65555      15.00985     481.47378         1     s49656n15017e         0         0         0         1           sdc        30           tot       1.00000
       2  res02                    0       0.02817      49.66160      15.07436     479.76740         2     s49660n15072e         0         0         0         1           sdc       148           tot       1.00000
       3  res03                    0       0.08321      49.62353      15.00327     508.12475         3     s49618n14997e         0         0         0         1           sdc        91           tot       1.00000
       4  res04                    0       0.21594      49.67080      15.04433     479.76919         4     s49676n15041e         0         0         0         1           sdc         3           tot       1.00000
       5  res05                    0       0.10363      49.63657      14.97633     479.77034         5     s49633n14966e         0         0         0         0                                            
       6  res06                    0       0.57408      49.64857      15.01929     479.76509         6     s49656n15017e         0         0         0         1           sdc       112           tot       1.00000
       7  res07                    0       0.31356      49.62882      15.00340     488.01601         7     s49635n14993e         0         0         0         1           sdc       119           tot       1.00000
       8  res08                    0       0.07681      49.64197      15.03938     479.76368         8     s49640n15048e         0         0         0         1           sdc        37           tot       1.00000
       9  res09                    0       0.14378      49.65056      15.01762     479.76547         9     s49656n15017e         0         0         0         1           sdc        31           tot       1.00000
      10  res10                    0       0.18601      49.62045      14.95822     533.39974        10     s49615n14969e         0         0         0         1           sdc        74           tot       1.00000
      11  res11                    0       0.13803      49.62687      14.97193     518.73270        11     s49633n14966e         0         0         0         1           sdc       180           tot       1.00000
      12  res12                    0       0.04151      49.61585      14.95296     574.16654        12     s49615n14969e         0         0         0         1           sdc       176           tot       1.00000
      13  res13                    0       0.09546      49.64148      14.99734     479.76780        13     s49635n14993e         0         0         0         1           sdc        44           tot       1.00000
      14  res14                    0       0.03348      49.62461      14.98859     530.63583        14     s49618n14997e         0         0         0         1           sdc        52           tot       1.00000
      15  res15                    0       0.05557      49.64667      15.03469     479.76278        15     s49640n15048e         0         0         0         0                                            
      16  res16                    0       0.16179      49.64755      14.99152     479.76899        16     s49653n14990e         0         0         0         1           sdc       110           tot       1.00000
      17  res17                    0       2.24025      49.61650      15.09424     501.20882        17     s49607n15083e         0         0         0         1           sdc        70           tot       1.00000
      18  res18                    0       0.08999      49.61702      15.04605     487.63108        18     s49622n15052e         0         0         0         0                                            
      19  res19                    0       0.01047      49.61699      15.09170     495.29827        19     s49607n15083e         0         0         0         0                                            
      20  res20                    0       0.08396      49.60600      15.04203     514.22131        20     s49604n15055e         0         0         0         0                                            
      21  res21                    0       0.05716      49.63327      15.04549     479.77666        21     s49640n15048e         0         0         0         0                                            
      22  res22                    0       0.09666      49.61697      15.04677     483.71353        22     s49622n15052e         0         0         0         0                                            
      23  res23                    0       0.11120      49.61564      14.99283     581.89503        23     s49618n14997e         0         0         0         1           sdc        89           tot       1.00000
      24  res24                    0       0.02202      49.61894      15.07693     479.77674        24     s49625n15079e         0         0         0         1           sdc       204           tot       1.00000
      25  res25                    0       0.48343      49.63668      15.05994     479.77510        25     s49640n15048e         0         0         0         1           sdc        60           tot       1.00000
      26  res26                    0       1.38407      49.61782      15.06024     479.77702        26     s49622n15052e         0         0         0         1           sdc       146           tot       1.00000
      27  res27                    0       0.00849      49.62687      15.00070     503.41990        27     s49618n14997e         0         0         0         0                                            
      28  res28                    0       0.09159      49.62695      14.98834     519.81676        28     s49635n14993e         0         0         0         0                                            
      29  res29                    0       0.03479      49.61999      14.95621     551.14123        29     s49615n14969e         0         0         0         0                                            
      30  res30                    0       0.06322      49.66842      15.04207     479.76943        30     s49676n15041e         0         0         0         0                                            
      31  res31                    0       0.14892      49.64976      15.05697     479.76434        31     s49658n15045e         0         0         0         1           sdc       138           tot       1.00000
      32  res32                    0       0.01268      49.61552      14.95151     582.24798        32     s49615n14969e         0         0         0         1           sdc       175           tot       1.00000
      33  res33                    0       0.87498      49.65103      15.06011     479.76440        33     s49660n15072e         0         0         0         1           sdc        78           tot       1.00000
      34  res34                    0       0.29764      49.61783      14.99730     566.26704        34     s49618n14997e         0         0         0         1           sdc        90           tot       1.00000
      35  res35                    0       1.03670      49.64211      14.99216     479.76836        35     s49635n14993e         0         0         0         1           sdc       122           tot       1.00000
      36  res36                    0       0.02836      49.64796      14.99158     479.76905        36     s49653n14990e         0         0         0         1           sdc       109           tot       1.00000
      37  res37                    0       0.21312      49.63150      14.95433     516.11701        37     s49633n14966e         0         0         0         1           sdc       185           tot       1.00000
      38  res38                    0       0.43093      49.62437      14.99022     529.12554        38     s49618n14997e         0         0         0         1           sdc        45           tot       1.00000
      39  res39                    0       0.01678      49.66462      15.03897     479.76575        39     s49658n15045e         0         0         0         0                                            
      40  res40                    0       0.01300      49.64879      15.06770     479.76564        40     s49642n15076e         0         0         0         0                                            
      41  res41                    0       0.04144      49.65541      15.06563     479.76620        41     s49660n15072e         0         0         0         0                                            
      42  res42                    0       0.01126      49.64829      14.98837     483.10186        42     s49653n14990e         0         0         0         0                                            
      43  res43                    0       0.01102      49.62094      14.95585     547.18613        43     s49615n14969e         0         0         0         0                                            
      44  res44                    0       3.08904      49.64444      15.02637     479.76392        44     s49638n15021e         0         0         0         1           sdc       210           tot       1.00000
      45  res45                    0       0.19166      49.62511      14.96265     514.04251        45     s49633n14966e         0         0         0         1           sdc        75           tot       1.00000
      46  res46                    0       0.04557      49.62657      14.99948     509.77420        46     s49618n14997e         0         0         0         0                                            
      47  res47                    0       0.09631      49.61316      14.99986     580.70707        47     s49618n14997e         0         0         0         0                                            
      48  res48                    0       0.54862      49.63064      15.10948     501.86601        48     s49627n15107e         0         0         0         1           sdc       133           tot       1.00000
      49  res49                    0       0.31681      49.62605      15.09368     483.75964        49     s49627n15107e         0         0         0         1           sdc       129           tot       1.00000
      50  res50                    0       0.14486      49.63248      15.11687     515.24773        50     s49627n15107e         0         0         0         1           sdc       168           tot       1.00000
      51  res51                    0       0.21903      49.62400      15.09739     494.72843        51     s49627n15107e         0         0         0         1           sdc       128           tot       1.00000
      52  res52                    0       0.02639      49.63525      15.08953     479.77473        52     s49642n15076e         0         0         0         1           sdc       161           tot       1.00000
      53  res53                    0       0.12676      49.63346      15.09754     479.77587        53     s49627n15107e         0         0         0         1           sdc       135           tot       1.00000
      54  res54                    0       0.06501      49.62687      15.06547     479.77522        54     s49625n15079e         0         0         0         1           sdc        94           tot       1.00000
      55  res55                    0       0.07723      49.63195      15.08514     479.77432        55     s49625n15079e         0         0         0         0                                            
      56  res56                    0       0.13587      49.61376      15.00060     577.00821        56     s49618n14997e         0         0         0         1           sdc       183           tot       1.00000
      57  res57                    0       0.06783      49.63236      15.10096     481.70579        57     s49627n15107e         0         0         0         1           sdc       134           tot       1.00000
      58  res58                    0       0.14948      49.62977      15.08989     479.77531        58     s49625n15079e         0         0         0         1           sdc       130           tot       1.00000
      59  res59                    0       0.15668      49.62322      15.10013     498.77300        59     s49627n15107e         0         0         0         1           sdc       127           tot       1.00000
      60  res60                    0       0.07428      49.65485      15.07781     479.77016        60     s49660n15072e         0         0         0         1           sdc        36           tot       1.00000
      61  res61                    0       2.31955      49.66928      15.04664     479.76893        61     s49676n15041e         0         0         0         1           sdc       178           tot       1.00000
      62  res62                    0       0.20419      49.62723      15.05143     479.77666        62     s49622n15052e         0         0         0         1           sdc       101           tot       1.00000
      63  res63                    0       0.10191      49.62828      15.05155     479.77647        63     s49622n15052e         0         0         0         1           sdc       103           tot       1.00000
      64  res64                    0       0.27391      49.60701      15.07322     494.36733        64     s49607n15083e         0         0         0         1           sdc        35           tot       1.00000
      65  res65                    0       0.07410      49.60399      15.07426     521.52320        65     s49607n15083e         0         0         0         1           sdc        33           tot       1.00000
      66  res66                    0       0.18000      49.62681      15.06608     479.77516        66     s49625n15079e         0         0         0         1           sdc        95           tot       1.00000
      67  res67                    0       0.16498      49.61391      14.96930     596.02212        67     s49615n14969e         0         0         0         1           sdc        53           tot       1.00000
      68  res68                    0       0.07398      49.60417      15.05475     491.67495        68     s49604n15055e         0         0         0         1           sdc        81           tot       1.00000
      69  res69                    0       0.14540      49.63900      15.05784     479.77554        69     s49640n15048e         0         0         0         1           sdc       149           tot       1.00000
      70  res70                    0       1.98695      49.63413      14.96926     481.47611        70     s49633n14966e         0         0         0         1           sdc        25           tot       1.00000
      71  res71                    0       8.29624      49.64126      15.01654     479.76548        71     s49638n15021e         0         0         0         1           sdc         5           tot       1.00000
      72  res72                    0       0.20999      49.61719      15.08949     491.94246        72     s49625n15079e         0         0         0         1           sdc        71           tot       1.00000
      73  res73                    0       0.08962      49.61942      15.07464     479.77651        73     s49625n15079e         0         0         0         1           sdc       157           tot       1.00000
      74  res74                    0       0.18472      49.60601      15.07260     498.91116        74     s49607n15083e         0         0         0         1           sdc        34           tot       1.00000
      75  res75                    0       0.13074      49.62774      15.05152     479.77656        75     s49622n15052e         0         0         0         1           sdc       102           tot       1.00000
      76  res76                    0       0.27910      49.62841      15.04485     479.77680        76     s49622n15052e         0         0         0         1           sdc        84           tot       1.00000
      77  res77                    0       0.17958      49.61431      15.03772     511.89365        77     s49620n15024e         0         0         0         1           sdc       198           tot       1.00000
      78  res78                    0       0.18338      49.62795      15.00232     496.24382        78     s49635n14993e         0         0         0         1           sdc       118           tot       1.00000
      79  res79                    0       2.08799      49.63219      15.04087     479.77717        79     s49640n15048e         0         0         0         1           sdc       171           tot       1.00000
      80  res80                    0       0.07040      49.64102      14.99745     479.76785        80     s49635n14993e         0         0         0         1           sdc       144           tot       1.00000
