rout_unit.con: rewritten by SWATprepR R package 2024-03-18 08:29:30 for SWAT+ rev.60.5.4
      id  name                gis_id          area           lat           lon          elev       rtu               wst       cst      ovfl      rule   out_tot       obj_typ    obj_id       hyd_typ          frac
       1  rtu0001                  0       1.31073      49.63110      15.11567     516.88191         1     s49616n15078e         0         0         0         2            ru         2           tot       1.00000           aqu             1           rhg             1                                                                                                                                                                                                                                                                                                                                                                                                                                                                                                
       2  rtu0002                  0       2.20340      49.62992      15.11597     513.59376         2     s49616n15078e         0         0         0         8            ru         3           sur       0.34267            ru             3           lat       0.34267            ru          1639           sur       0.22354            ru          1639           lat       0.22354            ru          1645           sur       0.43379            ru          1645           lat       0.43379           sdc           124           til             1           aqu             1           rhg             1                                                                                                                                                                                                
       3  rtu0003                  0       0.28745      49.62896      15.11642     512.03544         3     s49616n15078e         0         0         0         4            ru      1636           sur       1.00000            ru          1636           lat             1           sdc           124           til             1           aqu             1           rhg             1                                                                                                                                                                                                                                                                                                                                                                                                
       4  rtu0004                  0       0.42357      49.63160      15.11574     517.04753         4     s49616n15078e         0         0         0         2            ru      1803           tot       1.00000           aqu             1           rhg             1                                                                                                                                                                                                                                                                                                                                                                                                                                                                                                
       5  rtu0005                  0      18.27255      49.62083      14.97821     595.38554         5     s49616n15078e         0         0         0         4            ru      1116           tot       0.42809            ru          1544           tot       0.34882            ru          1545           tot       0.22309           aqu             1           rhg             1                                                                                                                                                                                                                                                                                                                                                                                                
       6  rtu0006                  0       0.25371      49.62114      14.97985     587.15549         6     s49616n15078e         0         0         0         3            ru         5           tot       0.46154            ru          1545           tot       0.53846           aqu             1           rhg             1                                                                                                                                                                                                                                                                                                                                                                                                                                                
       7  rtu0007                  0      11.63701      49.62217      14.98377     571.59952         7     s49616n15078e         0         0         0         3            ru      1043           tot       0.26940            ru          1545           tot        0.7306           aqu             1           rhg             1                                                                                                                                                                                                                                                                                                                                                                                                                                                
       8  rtu0008                  0      12.69530      49.61768      14.97100     611.49248         8     s49616n15078e         0         0         0         3            ru        54           tot       0.48326            ru          1121           tot       0.51674           aqu             1           rhg             1                                                                                                                                                                                                                                                                                                                                                                                                                                                
       9  rtu0009                  0       0.07076      49.65466      14.96512     542.54962         9     s49616n15078e         0         0         0         3            ru        10           tot       0.50000            ru          1149           tot           0.5           aqu             1           rhg             1                                                                                                                                                                                                                                                                                                                                                                                                                                                
      10  rtu0010                  0       3.17035      49.65434      14.96867     539.48908        10     s49616n15078e         0         0         0         2            ru      1149           tot       1.00000           aqu             1           rhg             1                                                                                                                                                                                                                                                                                                                                                                                                                                                                                                
      11  rtu0011                  0       8.58067      49.63786      15.10132     498.87176        11     s49616n15078e         0         0         0         2            ru      2251           tot       1.00000           aqu             1           rhg             1                                                                                                                                                                                                                                                                                                                                                                                                                                                                                                
      12  rtu0012                  0       2.11748      49.63754      15.09878     488.67942        12     s49616n15078e         0         0         0         4            ru        11           sur       1.00000            ru            11           lat             1           sdc           181           til             1           aqu             1           rhg             1                                                                                                                                                                                                                                                                                                                                                                                                
      13  rtu0013                  0       1.68191      49.63700      15.10597     516.71586        13     s49616n15078e         0         0         0         3            ru        14           tot       0.54341            ru          2253           tot       0.45659           aqu             1           rhg             1                                                                                                                                                                                                                                                                                                                                                                                                                                                
      14  rtu0014                  0       0.39271      49.63740      15.10450     509.71303        14     s49616n15078e         0         0         0         2            ru        11           tot       1.00000           aqu             1           rhg             1                                                                                                                                                                                                                                                                                                                                                                                                                                                                                                
      15  rtu0015                  0       2.72511      49.63661      15.10941     533.39413        15     s49616n15078e         0         0         0         5            ru        13           tot       0.30844            ru          2253           tot       0.30195            ru          2254           tot       0.15828            ru          2255           tot       0.23133           aqu             1           rhg             1                                                                                                                                                                                                                                                                                                                                                
      16  rtu0016                  0       0.99489      49.63627      15.11293     537.17645        16     s49616n15078e         0         0         0         2            ru      2257           tot       1.00000           aqu             1           rhg             1                                                                                                                                                                                                                                                                                                                                                                                                                                                                                                
      17  rtu0017                  0       1.06309      49.63125      14.96563     498.33782        17     s49616n15078e         0         0         0         3            ru        29           tot       0.48196            ru          1153           tot       0.51804           aqu             1           rhg             1                                                                                                                                                                                                                                                                                                                                                                                                                                                
      18  rtu0018                  0       0.71301      49.63282      14.96761     488.21123        18     s49616n15078e         0         0         0         2            ru      1152           tot       1.00000           aqu             1           rhg             1                                                                                                                                                                                                                                                                                                                                                                                                                                                                                                
      19  rtu0019                  0       0.00839      49.63308      14.96668     486.72858        19     s49616n15078e         0         0         0         6            ru      1153           sur       0.33750            ru          1153           lat        0.3375            ru          1823           sur        0.6625            ru          1823           lat        0.6625           sdc            20           til             1           aqu             1           rhg             1                                                                                                                                                                                                                                                                                                
      20  rtu0020                  0       0.02626      49.63251      14.96737     490.68016        20     s49616n15078e         0         0         0         3            ru        18           tot       0.40000            ru            23           tot           0.6           aqu             1           rhg             1                                                                                                                                                                                                                                                                                                                                                                                                                                                
      21  rtu0021                  0       0.02056      49.63225      14.96802     489.25648        21     s49616n15078e         0         0         0         2            ru      1154           tot       1.00000           aqu             1           rhg             1                                                                                                                                                                                                                                                                                                                                                                                                                                                                                                
      22  rtu0022                  0       0.06048      49.63281      14.96664     488.62103        22     s49616n15078e         0         0         0         3            ru        18           tot       0.51479            ru          1153           tot       0.48521           aqu             1           rhg             1                                                                                                                                                                                                                                                                                                                                                                                                                                                
      23  rtu0023                  0       0.04003      49.63258      14.96720     490.25062        23     s49616n15078e         0         0         0         3            ru        18           tot       0.56522            ru            26           tot       0.43478           aqu             1           rhg             1                                                                                                                                                                                                                                                                                                                                                                                                                                                
      24  rtu0024                  0       0.05089      49.63243      14.96757     490.92220        24     s49616n15078e         0         0         0         2            ru        18           tot       1.00000           aqu             1           rhg             1                                                                                                                                                                                                                                                                                                                                                                                                                                                                                                
      25  rtu0025                  0       0.20606      49.63239      14.96718     490.81991        25     s49616n15078e         0         0         0         4            ru        22           tot       0.46193            ru            24           tot       0.26396            ru            26           tot       0.27411           aqu             1           rhg             1                                                                                                                                                                                                                                                                                                                                                                                                
      26  rtu0026                  0       0.06231      49.63268      14.96694     489.50008        26     s49616n15078e         0         0         0         3            ru        18           tot       0.45455            ru            22           tot       0.54545           aqu             1           rhg             1                                                                                                                                                                                                                                                                                                                                                                                                                                                
      27  rtu0027                  0       0.04641      49.63233      14.96784     490.41441        27     s49616n15078e         0         0         0         2            ru        21           tot       1.00000           aqu             1           rhg             1                                                                                                                                                                                                                                                                                                                                                                                                                                                                                                
      28  rtu0028                  0       0.95646      49.63208      14.96680     492.66348        28     s49616n15078e         0         0         0         4            ru        25           tot       0.33221            ru          1153           tot       0.50671            ru          1154           tot       0.16107           aqu             1           rhg             1                                                                                                                                                                                                                                                                                                                                                                                                
      29  rtu0029                  0       0.29127      49.63173      14.96638     494.64553        29     s49616n15078e         0         0         0         2            ru        28           tot       1.00000           aqu             1           rhg             1                                                                                                                                                                                                                                                                                                                                                                                                                                                                                                
      30  rtu0030                  0       0.22599      49.63063      14.96493     504.50061        30     s49616n15078e         0         0         0         2            ru        17           tot       1.00000           aqu             1           rhg             1                                                                                                                                                                                                                                                                                                                                                                                                                                                                                                
      31  rtu0031                  0       0.21212      49.63107      14.96631     497.13759        31     s49616n15078e         0         0         0         2            ru      1154           tot       1.00000           aqu             1           rhg             1                                                                                                                                                                                                                                                                                                                                                                                                                                                                                                
      32  rtu0032                  0       3.48174      49.62414      14.97362     553.54498        32     s49616n15078e         0         0         0         4            ru      1114           tot       0.25240            ru          1374           tot       0.36062            ru          1648           tot       0.38698           aqu             1           rhg             1                                                                                                                                                                                                                                                                                                                                                                                                
      33  rtu0033                  0      15.77262      49.63430      15.10684     514.52769        33     s49616n15078e         0         0         0         3            ru        34           tot       0.54482            ru            36           tot       0.45518           aqu             1           rhg             1                                                                                                                                                                                                                                                                                                                                                                                                                                                
      34  rtu0034                  0       0.17625      49.63249      15.10638     504.30792        34     s49616n15078e         0         0         0         4            ru      1787           sur       1.00000            ru          1787           lat             1           sdc           132           til             1           aqu             1           rhg             1                                                                                                                                                                                                                                                                                                                                                                                                
      35  rtu0035                  0       0.53697      49.63144      15.10717     501.51882        35     s49616n15078e         0         0         0         4            ru      1107           sur       1.00000            ru          1107           lat             1           sdc           132           til             1           aqu             1           rhg             1                                                                                                                                                                                                                                                                                                                                                                                                
      36  rtu0036                  0       8.45813      49.63481      15.10276     503.95998        36     s49616n15078e         0         0         0         3            ru        39           tot       0.35686            ru            48           tot       0.64314           aqu             1           rhg             1                                                                                                                                                                                                                                                                                                                                                                                                                                                
      37  rtu0037                  0       0.06633      49.63533      15.10140     495.73519        37     s49616n15078e         0         0         0         4            ru        44           sur       1.00000            ru            44           lat             1           sdc           132           til             1           aqu             1           rhg             1                                                                                                                                                                                                                                                                                                                                                                                                
      38  rtu0038                  0       0.32546      49.63657      15.10303     500.59230        38     s49616n15078e         0         0         0         2            ru        48           tot       1.00000           aqu             1           rhg             1                                                                                                                                                                                                                                                                                                                                                                                                                                                                                                
      39  rtu0039                  0       0.30892      49.63308      15.10254     499.60695        39     s49616n15078e         0         0         0         2            ru      1784           tot       1.00000           aqu             1           rhg             1                                                                                                                                                                                                                                                                                                                                                                                                                                                                                                