rout_unit.def: written by SWAT+ editor v2.1.0 on 2023-05-02 16:02 for SWAT+ rev.60.5.4
      id              name  elem_tot  elements  
       1           rtu0001         1         1  
       2           rtu0002         1         2  
       3           rtu0003         1         3  
       4           rtu0004         1         4  
       5           rtu0005         1         5  
       6           rtu0006         1         6  
       7           rtu0007         1         7  
       8           rtu0008         1         8  
       9           rtu0009         1         9  
      10           rtu0010         1        10  
      11           rtu0011         1        11  
      12           rtu0012         1        12  
      13           rtu0013         1        13  
      14           rtu0014         1        14  
      15           rtu0015         1        15  
      16           rtu0016         1        16  
      17           rtu0017         1        17  
      18           rtu0018         1        18  
      19           rtu0019         1        19  
      20           rtu0020         1        20  
      21           rtu0021         1        21  
      22           rtu0022         1        22  
      23           rtu0023         1        23  
      24           rtu0024         1        24  
      25           rtu0025         1        25  
      26           rtu0026         1        26  
      27           rtu0027         1        27  
      28           rtu0028         1        28  
      29           rtu0029         1        29  
      30           rtu0030         1        30  
      31           rtu0031         1        31  
      32           rtu0032         1        32  
      33           rtu0033         1        33  
      34           rtu0034         1        34  
      35           rtu0035         1        35  
      36           rtu0036         1        36  
      37           rtu0037         1        37  
      38           rtu0038         1        38  
      39           rtu0039         1        39  
      40           rtu0040         1        40  
      41           rtu0041         1        41  
      42           rtu0042         1        42  
      43           rtu0043         1        43  
      44           rtu0044         1        44  
      45           rtu0045         1        45  
      46           rtu0046         1        46  
      47           rtu0047         1        47  
      48           rtu0048         1        48  
      49           rtu0049         1        49  
      50           rtu0050         1        50  
      51           rtu0051         1        51  
      52           rtu0052         1        52  
      53           rtu0053         1        53  
      54           rtu0054         1        54  
      55           rtu0055         1        55  
      56           rtu0056         1        56  
      57           rtu0057         1        57  
      58           rtu0058         1        58  
      59           rtu0059         1        59  
      60           rtu0060         1        60  
      61           rtu0061         1        61  
      62           rtu0062         1        62  
      63           rtu0063         1        63  
      64           rtu0064         1        64  
      65           rtu0065         1        65  
      66           rtu0066         1        66  
      67           rtu0067         1        67  
      68           rtu0068         1        68  
      69           rtu0069         1        69  
      70           rtu0070         1        70  
      71           rtu0071         1        71  
      72           rtu0072         1        72  
      73           rtu0073         1        73  
      74           rtu0074         1        74  
      75           rtu0075         1        75  
      76           rtu0076         1        76  
      77           rtu0077         1        77  
      78           rtu0078         1        78  
      79           rtu0079         1        79  
      80           rtu0080         1        80  
      81           rtu0081         1        81  
      82           rtu0082         1        82  
      83           rtu0083         1        83  
      84           rtu0084         1        84  
      85           rtu0085         1        85  
      86           rtu0086         1        86  
      87           rtu0087         1        87  
      88           rtu0088         1        88  
      89           rtu0089         1        89  
      90           rtu0090         1        90  
      91           rtu0091         1        91  
      92           rtu0092         1        92  
      93           rtu0093         1        93  
      94           rtu0094         1        94  
      95           rtu0095         1        95  
      96           rtu0096         1        96  
      97           rtu0097         1        97  
      98           rtu0098         1        98  
      99           rtu0099         1        99  
     100           rtu0100         1       100  
     101           rtu0101         1       101  
     102           rtu0102         1       102  
     103           rtu0103         1       103  
     104           rtu0104         1       104  
     105           rtu0105         1       105  
     106           rtu0106         1       106  
     107           rtu0107         1       107  
     108           rtu0108         1       108  
     109           rtu0109         1       109  
     110           rtu0110         1       110  
     111           rtu0111         1       111  
     112           rtu0112         1       112  
     113           rtu0113         1       113  
     114           rtu0114         1       114  
     115           rtu0115         1       115  
     116           rtu0116         1       116  
     117           rtu0117         1       117  
     118           rtu0118         1       118  
     119           rtu0119         1       119  
     120           rtu0120         1       120  
     121           rtu0121         1       121  
     122           rtu0122         1       122  
     123           rtu0123         1       123  
     124           rtu0124         1       124  
     125           rtu0125         1       125  
     126           rtu0126         1       126  
     127           rtu0127         1       127  
     128           rtu0128         1       128  
     129           rtu0129         1       129  
     130           rtu0130         1       130  
     131           rtu0131         1       131  
     132           rtu0132         1       132  
     133           rtu0133         1       133  
     134           rtu0134         1       134  
     135           rtu0135         1       135  
     136           rtu0136         1       136  
     137           rtu0137         1       137  
     138           rtu0138         1       138  
     139           rtu0139         1       139  
     140           rtu0140         1       140  
     141           rtu0141         1       141  
     142           rtu0142         1       142  
     143           rtu0143         1       143  
     144           rtu0144         1       144  
     145           rtu0145         1       145  
     146           rtu0146         1       146  
     147           rtu0147         1       147  
     148           rtu0148         1       148  
     149           rtu0149         1       149  
     150           rtu0150         1       150  
     151           rtu0151         1       151  
     152           rtu0152         1       152  
     153           rtu0153         1       153  
     154           rtu0154         1       154  
     155           rtu0155         1       155  
     156           rtu0156         1       156  
     157           rtu0157         1       157  
     158           rtu0158         1       158  
     159           rtu0159         1       159  
     160           rtu0160         1       160  
     161           rtu0161         1       161  
     162           rtu0162         1       162  
     163           rtu0163         1       163  
     164           rtu0164         1       164  
     165           rtu0165         1       165  
     166           rtu0166         1       166  
     167           rtu0167         1       167  
     168           rtu0168         1       168  
     169           rtu0169         1       169  
     170           rtu0170         1       170  
     171           rtu0171         1       171  
     172           rtu0172         1       172  
     173           rtu0173         1       173  
     174           rtu0174         1       174  
     175           rtu0175         1       175  
     176           rtu0176         1       176  
     177           rtu0177         1       177  
     178           rtu0178         1       178  
     179           rtu0179         1       179  
     180           rtu0180         1       180  
     181           rtu0181         1       181  
     182           rtu0182         1       182  
     183           rtu0183         1       183  
     184           rtu0184         1       184  
     185           rtu0185         1       185  
     186           rtu0186         1       186  
     187           rtu0187         1       187  
     188           rtu0188         1       188  
     189           rtu0189         1       189  
     190           rtu0190         1       190  
     191           rtu0191         1       191  
     192           rtu0192         1       192  
     193           rtu0193         1       193  
     194           rtu0194         1       194  
     195           rtu0195         1       195  
     196           rtu0196         1       196  
     197           rtu0197         1       197  
     198           rtu0198         1       198  
     199           rtu0199         1       199  
     200           rtu0200         1       200  
     201           rtu0201         1       201  
     202           rtu0202         1       202  
     203           rtu0203         1       203  
     204           rtu0204         1       204  
     205           rtu0205         1       205  
     206           rtu0206         1       206  
     207           rtu0207         1       207  
     208           rtu0208         1       208  
     209           rtu0209         1       209  
     210           rtu0210         1       210  
     211           rtu0211         1       211  
     212           rtu0212         1       212  
     213           rtu0213         1       213  
     214           rtu0214         1       214  
     215           rtu0215         1       215  
     216           rtu0216         1       216  
     217           rtu0217         1       217  
     218           rtu0218         1       218  
     219           rtu0219         1       219  
     220           rtu0220         1       220  
     221           rtu0221         1       221  
     222           rtu0222         1       222  
     223           rtu0223         1       223  
     224           rtu0224         1       224  
     225           rtu0225         1       225  
     226           rtu0226         1       226  
     227           rtu0227         1       227  
     228           rtu0228         1       228  
     229           rtu0229         1       229  
     230           rtu0230         1       230  
     231           rtu0231         1       231  
     232           rtu0232         1       232  
     233           rtu0233         1       233  
     234           rtu0234         1       234  
     235           rtu0235         1       235  
     236           rtu0236         1       236  
     237           rtu0237         1       237  
     238           rtu0238         1       238  
     239           rtu0239         1       239  
     240           rtu0240         1       240  
     241           rtu0241         1       241  
     242           rtu0242         1       242  
     243           rtu0243         1       243  
     244           rtu0244         1       244  
     245           rtu0245         1       245  
     246           rtu0246         1       246  
     247           rtu0247         1       247  
     248           rtu0248         1       248  
     249           rtu0249         1       249  
     250           rtu0250         1       250  
     251           rtu0251         1       251  
     252           rtu0252         1       252  
     253           rtu0253         1       253  
     254           rtu0254         1       254  
     255           rtu0255         1       255  
     256           rtu0256         1       256  
     257           rtu0257         1       257  
     258           rtu0258         1       258  
     259           rtu0259         1       259  
     260           rtu0260         1       260  
     261           rtu0261         1       261  
     262           rtu0262         1       262  
     263           rtu0263         1       263  
     264           rtu0264         1       264  
     265           rtu0265         1       265  
     266           rtu0266         1       266  
     267           rtu0267         1       267  
     268           rtu0268         1       268  
     269           rtu0269         1       269  
     270           rtu0270         1       270  
     271           rtu0271         1       271  
     272           rtu0272         1       272  
     273           rtu0273         1       273  
     274           rtu0274         1       274  
     275           rtu0275         1       275  
     276           rtu0276         1       276  
     277           rtu0277         1       277  
     278           rtu0278         1       278  
     279           rtu0279         1       279  
     280           rtu0280         1       280  
     281           rtu0281         1       281  
     282           rtu0282         1       282  
     283           rtu0283         1       283  
     284           rtu0284         1       284  
     285           rtu0285         1       285  
     286           rtu0286         1       286  
     287           rtu0287         1       287  
     288           rtu0288         1       288  
     289           rtu0289         1       289  
     290           rtu0290         1       290  
     291           rtu0291         1       291  
     292           rtu0292         1       292  
     293           rtu0293         1       293  
     294           rtu0294         1       294  
     295           rtu0295         1       295  
     296           rtu0296         1       296  
     297           rtu0297         1       297  
     298           rtu0298         1       298  
     299           rtu0299         1       299  
     300           rtu0300         1       300  
     301           rtu0301         1       301  
     302           rtu0302         1       302  
     303           rtu0303         1       303  
     304           rtu0304         1       304  
     305           rtu0305         1       305  
     306           rtu0306         1       306  
     307           rtu0307         1       307  
     308           rtu0308         1       308  
     309           rtu0309         1       309  
     310           rtu0310         1       310  
     311           rtu0311         1       311  
     312           rtu0312         1       312  
     313           rtu0313         1       313  
     314           rtu0314         1       314  
     315           rtu0315         1       315  
     316           rtu0316         1       316  
     317           rtu0317         1       317  
     318           rtu0318         1       318  
     319           rtu0319         1       319  
     320           rtu0320         1       320  
     321           rtu0321         1       321  
     322           rtu0322         1       322  
     323           rtu0323         1       323  
     324           rtu0324         1       324  
     325           rtu0325         1       325  
     326           rtu0326         1       326  
     327           rtu0327         1       327  
     328           rtu0328         1       328  
     329           rtu0329         1       329  
     330           rtu0330         1       330  
     331           rtu0331         1       331  
     332           rtu0332         1       332  
     333           rtu0333         1       333  
     334           rtu0334         1       334  
     335           rtu0335         1       335  
     336           rtu0336         1       336  
     337           rtu0337         1       337  
     338           rtu0338         1       338  
     339           rtu0339         1       339  
     340           rtu0340         1       340  
     341           rtu0341         1       341  
     342           rtu0342         1       342  
     343           rtu0343         1       343  
     344           rtu0344         1       344  
     345           rtu0345         1       345  
     346           rtu0346         1       346  
     347           rtu0347         1       347  
     348           rtu0348         1       348  
     349           rtu0349         1       349  
     350           rtu0350         1       350  
     351           rtu0351         1       351  
     352           rtu0352         1       352  
     353           rtu0353         1       353  
     354           rtu0354         1       354  
     355           rtu0355         1       355  
     356           rtu0356         1       356  
     357           rtu0357         1       357  
     358           rtu0358         1       358  
     359           rtu0359         1       359  
     360           rtu0360         1       360  
     361           rtu0361         1       361  
     362           rtu0362         1       362  
     363           rtu0363         1       363  
     364           rtu0364         1       364  
     365           rtu0365         1       365  
     366           rtu0366         1       366  
     367           rtu0367         1       367  
     368           rtu0368         1       368  
     369           rtu0369         1       369  
     370           rtu0370         1       370  
     371           rtu0371         1       371  
     372           rtu0372         1       372  
     373           rtu0373         1       373  
     374           rtu0374         1       374  
     375           rtu0375         1       375  
     376           rtu0376         1       376  
     377           rtu0377         1       377  
     378           rtu0378         1       378  
     379           rtu0379         1       379  
     380           rtu0380         1       380  
     381           rtu0381         1       381  
     382           rtu0382         1       382  
     383           rtu0383         1       383  
     384           rtu0384         1       384  
     385           rtu0385         1       385  
     386           rtu0386         1       386  
     387           rtu0387         1       387  
     388           rtu0388         1       388  
     389           rtu0389         1       389  
     390           rtu0390         1       390  
     391           rtu0391         1       391  
     392           rtu0392         1       392  
     393           rtu0393         1       393  
     394           rtu0394         1       394  
     395           rtu0395         1       395  
     396           rtu0396         1       396  
     397           rtu0397         1       397  
     398           rtu0398         1       398  
     399           rtu0399         1       399  
     400           rtu0400         1       400  
     401           rtu0401         1       401  
     402           rtu0402         1       402  
     403           rtu0403         1       403  
     404           rtu0404         1       404  
     405           rtu0405         1       405  
     406           rtu0406         1       406  
     407           rtu0407         1       407  
     408           rtu0408         1       408  
     409           rtu0409         1       409  
     410           rtu0410         1       410  
     411           rtu0411         1       411  
     412           rtu0412         1       412  
     413           rtu0413         1       413  
     414           rtu0414         1       414  
     415           rtu0415         1       415  
     416           rtu0416         1       416  
     417           rtu0417         1       417  
     418           rtu0418         1       418  
     419           rtu0419         1       419  
     420           rtu0420         1       420  
     421           rtu0421         1       421  
     422           rtu0422         1       422  
     423           rtu0423         1       423  
     424           rtu0424         1       424  
     425           rtu0425         1       425  
     426           rtu0426         1       426  
     427           rtu0427         1       427  
     428           rtu0428         1       428  
     429           rtu0429         1       429  
     430           rtu0430         1       430  
     431           rtu0431         1       431  
     432           rtu0432         1       432  
     433           rtu0433         1       433  
     434           rtu0434         1       434  
     435           rtu0435         1       435  
     436           rtu0436         1       436  
     437           rtu0437         1       437  
     438           rtu0438         1       438  
     439           rtu0439         1       439  
     440           rtu0440         1       440  
     441           rtu0441         1       441  
     442           rtu0442         1       442  
     443           rtu0443         1       443  
     444           rtu0444         1       444  
     445           rtu0445         1       445  
     446           rtu0446         1       446  
     447           rtu0447         1       447  
     448           rtu0448         1       448  
     449           rtu0449         1       449  
     450           rtu0450         1       450  
     451           rtu0451         1       451  
     452           rtu0452         1       452  
     453           rtu0453         1       453  
     454           rtu0454         1       454  
     455           rtu0455         1       455  
     456           rtu0456         1       456  
     457           rtu0457         1       457  
     458           rtu0458         1       458  
     459           rtu0459         1       459  
     460           rtu0460         1       460  
     461           rtu0461         1       461  
     462           rtu0462         1       462  
     463           rtu0463         1       463  
     464           rtu0464         1       464  
     465           rtu0465         1       465  
     466           rtu0466         1       466  
     467           rtu0467         1       467  
     468           rtu0468         1       468  
     469           rtu0469         1       469  
     470           rtu0470         1       470  
     471           rtu0471         1       471  
     472           rtu0472         1       472  
     473           rtu0473         1       473  
     474           rtu0474         1       474  
     475           rtu0475         1       475  
     476           rtu0476         1       476  
     477           rtu0477         1       477  
     478           rtu0478         1       478  
     479           rtu0479         1       479  
     480           rtu0480         1       480  
     481           rtu0481         1       481  
     482           rtu0482         1       482  
     483           rtu0483         1       483  
     484           rtu0484         1       484  
     485           rtu0485         1       485  
     486           rtu0486         1       486  
     487           rtu0487         1       487  
     488           rtu0488         1       488  
     489           rtu0489         1       489  
     490           rtu0490         1       490  
     491           rtu0491         1       491  
     492           rtu0492         1       492  
     493           rtu0493         1       493  
     494           rtu0494         1       494  
     495           rtu0495         1       495  
     496           rtu0496         1       496  
     497           rtu0497         1       497  
     498           rtu0498         1       498  
     499           rtu0499         1       499  
     500           rtu0500         1       500  
     501           rtu0501         1       501  
     502           rtu0502         1       502  
     503           rtu0503         1       503  
     504           rtu0504         1       504  
     505           rtu0505         1       505  
     506           rtu0506         1       506  
     507           rtu0507         1       507  
     508           rtu0508         1       508  
     509           rtu0509         1       509  
     510           rtu0510         1       510  
     511           rtu0511         1       511  
     512           rtu0512         1       512  
     513           rtu0513         1       513  
     514           rtu0514         1       514  
     515           rtu0515         1       515  
     516           rtu0516         1       516  
     517           rtu0517         1       517  
     518           rtu0518         1       518  
     519           rtu0519         1       519  
     520           rtu0520         1       520  
     521           rtu0521         1       521  
     522           rtu0522         1       522  
     523           rtu0523         1       523  
     524           rtu0524         1       524  
     525           rtu0525         1       525  
     526           rtu0526         1       526  
     527           rtu0527         1       527  
     528           rtu0528         1       528  
     529           rtu0529         1       529  
     530           rtu0530         1       530  
     531           rtu0531         1       531  
     532           rtu0532         1       532  
     533           rtu0533         1       533  
     534           rtu0534         1       534  
     535           rtu0535         1       535  
     536           rtu0536         1       536  
     537           rtu0537         1       537  
     538           rtu0538         1       538  
     539           rtu0539         1       539  
     540           rtu0540         1       540  
     541           rtu0541         1       541  
     542           rtu0542         1       542  
     543           rtu0543         1       543  
     544           rtu0544         1       544  
     545           rtu0545         1       545  
     546           rtu0546         1       546  
     547           rtu0547         1       547  
     548           rtu0548         1       548  
     549           rtu0549         1       549  
     550           rtu0550         1       550  
     551           rtu0551         1       551  
     552           rtu0552         1       552  
     553           rtu0553         1       553  
     554           rtu0554         1       554  
     555           rtu0555         1       555  
     556           rtu0556         1       556  
     557           rtu0557         1       557  
     558           rtu0558         1       558  
     559           rtu0559         1       559  
     560           rtu0560         1       560  
     561           rtu0561         1       561  
     562           rtu0562         1       562  
     563           rtu0563         1       563  
     564           rtu0564         1       564  
     565           rtu0565         1       565  
     566           rtu0566         1       566  
     567           rtu0567         1       567  
     568           rtu0568         1       568  
     569           rtu0569         1       569  
     570           rtu0570         1       570  
     571           rtu0571         1       571  
     572           rtu0572         1       572  
     573           rtu0573         1       573  
     574           rtu0574         1       574  
     575           rtu0575         1       575  
     576           rtu0576         1       576  
     577           rtu0577         1       577  
     578           rtu0578         1       578  
     579           rtu0579         1       579  
     580           rtu0580         1       580  
     581           rtu0581         1       581  
     582           rtu0582         1       582  
     583           rtu0583         1       583  
     584           rtu0584         1       584  
     585           rtu0585         1       585  
     586           rtu0586         1       586  
     587           rtu0587         1       587  
     588           rtu0588         1       588  
     589           rtu0589         1       589  
     590           rtu0590         1       590  
     591           rtu0591         1       591  
     592           rtu0592         1       592  
     593           rtu0593         1       593  
     594           rtu0594         1       594  
     595           rtu0595         1       595  
     596           rtu0596         1       596  
     597           rtu0597         1       597  
     598           rtu0598         1       598  
     599           rtu0599         1       599  
     600           rtu0600         1       600  
     601           rtu0601         1       601  
     602           rtu0602         1       602  
     603           rtu0603         1       603  
     604           rtu0604         1       604  
     605           rtu0605         1       605  
     606           rtu0606         1       606  
     607           rtu0607         1       607  
     608           rtu0608         1       608  
     609           rtu0609         1       609  