slr.cli: Solar radiation file names - file written by SWATprepR R package 2024-08-29 12:40:30
filename
sta_id1.slr
sta_id10.slr
sta_id11.slr
sta_id12.slr
sta_id13.slr
sta_id14.slr
sta_id15.slr
sta_id16.slr
sta_id17.slr
sta_id18.slr
sta_id19.slr
sta_id2.slr
sta_id3.slr
sta_id4.slr
sta_id5.slr
sta_id6.slr
sta_id7.slr
sta_id8.slr
sta_id9.slr
