slr.cli: Solar radiation file names - file written by SWATprepR R package 2024-03-18 08:29:29
filename
sta_id1.slr
