soil_plant.ini: written by SWAT+ editor v2.1.0 on 2023-05-02 16:02 for SWAT+ rev.60.5.4
name                   sw_frac         nutrients              pest              path              hmet              salt
spla_hru0001           0.00000      snut_hru0001              null              null              null              null
spla_hru0002           0.00000      snut_hru0002              null              null              null              null
spla_hru0003           0.00000      snut_hru0003              null              null              null              null
spla_hru0004           0.00000      snut_hru0004              null              null              null              null
spla_hru0005           0.00000      snut_hru0005              null              null              null              null
spla_hru0006           0.00000      snut_hru0006              null              null              null              null
spla_hru0007           0.00000      snut_hru0007              null              null              null              null
spla_hru0008           0.00000      snut_hru0008              null              null              null              null
spla_hru0009           0.00000      snut_hru0009              null              null              null              null
spla_hru0010           0.00000      snut_hru0010              null              null              null              null
spla_hru0011           0.00000      snut_hru0011              null              null              null              null
spla_hru0012           0.00000      snut_hru0012              null              null              null              null
spla_hru0013           0.00000      snut_hru0013              null              null              null              null
spla_hru0014           0.00000      snut_hru0014              null              null              null              null
spla_hru0015           0.00000      snut_hru0015              null              null              null              null
spla_hru0016           0.00000      snut_hru0016              null              null              null              null
spla_hru0017           0.00000      snut_hru0017              null              null              null              null
spla_hru0018           0.00000      snut_hru0018              null              null              null              null
spla_hru0019           0.00000      snut_hru0019              null              null              null              null
spla_hru0020           0.00000      snut_hru0020              null              null              null              null
spla_hru0021           0.00000      snut_hru0021              null              null              null              null
spla_hru0022           0.00000      snut_hru0022              null              null              null              null
spla_hru0023           0.00000      snut_hru0023              null              null              null              null
spla_hru0024           0.00000      snut_hru0024              null              null              null              null
spla_hru0025           0.00000      snut_hru0025              null              null              null              null
spla_hru0026           0.00000      snut_hru0026              null              null              null              null
spla_hru0027           0.00000      snut_hru0027              null              null              null              null
spla_hru0028           0.00000      snut_hru0028              null              null              null              null
spla_hru0029           0.00000      snut_hru0029              null              null              null              null
spla_hru0030           0.00000      snut_hru0030              null              null              null              null
spla_hru0031           0.00000      snut_hru0031              null              null              null              null
spla_hru0032           0.00000      snut_hru0032              null              null              null              null
spla_hru0033           0.00000      snut_hru0033              null              null              null              null
spla_hru0034           0.00000      snut_hru0034              null              null              null              null
spla_hru0035           0.00000      snut_hru0035              null              null              null              null
spla_hru0036           0.00000      snut_hru0036              null              null              null              null
spla_hru0037           0.00000      snut_hru0037              null              null              null              null
spla_hru0038           0.00000      snut_hru0038              null              null              null              null
spla_hru0039           0.00000      snut_hru0039              null              null              null              null
spla_hru0040           0.00000      snut_hru0040              null              null              null              null
spla_hru0041           0.00000      snut_hru0041              null              null              null              null
spla_hru0042           0.00000      snut_hru0042              null              null              null              null
spla_hru0043           0.00000      snut_hru0043              null              null              null              null
spla_hru0044           0.00000      snut_hru0044              null              null              null              null
spla_hru0045           0.00000      snut_hru0045              null              null              null              null
spla_hru0046           0.00000      snut_hru0046              null              null              null              null
spla_hru0047           0.00000      snut_hru0047              null              null              null              null
spla_hru0048           0.00000      snut_hru0048              null              null              null              null
spla_hru0049           0.00000      snut_hru0049              null              null              null              null
spla_hru0050           0.00000      snut_hru0050              null              null              null              null
spla_hru0051           0.00000      snut_hru0051              null              null              null              null
spla_hru0052           0.00000      snut_hru0052              null              null              null              null
spla_hru0053           0.00000      snut_hru0053              null              null              null              null
spla_hru0054           0.00000      snut_hru0054              null              null              null              null
spla_hru0055           0.00000      snut_hru0055              null              null              null              null
spla_hru0056           0.00000      snut_hru0056              null              null              null              null
spla_hru0057           0.00000      snut_hru0057              null              null              null              null
spla_hru0058           0.00000      snut_hru0058              null              null              null              null
spla_hru0059           0.00000      snut_hru0059              null              null              null              null
spla_hru0060           0.00000      snut_hru0060              null              null              null              null
spla_hru0061           0.00000      snut_hru0061              null              null              null              null
spla_hru0062           0.00000      snut_hru0062              null              null              null              null
spla_hru0063           0.00000      snut_hru0063              null              null              null              null
spla_hru0064           0.00000      snut_hru0064              null              null              null              null
spla_hru0065           0.00000      snut_hru0065              null              null              null              null
spla_hru0066           0.00000      snut_hru0066              null              null              null              null
spla_hru0067           0.00000      snut_hru0067              null              null              null              null
spla_hru0068           0.00000      snut_hru0068              null              null              null              null
spla_hru0069           0.00000      snut_hru0069              null              null              null              null
spla_hru0070           0.00000      snut_hru0070              null              null              null              null
spla_hru0071           0.00000      snut_hru0071              null              null              null              null
spla_hru0072           0.00000      snut_hru0072              null              null              null              null
spla_hru0073           0.00000      snut_hru0073              null              null              null              null
spla_hru0074           0.00000      snut_hru0074              null              null              null              null
spla_hru0075           0.00000      snut_hru0075              null              null              null              null
spla_hru0076           0.00000      snut_hru0076              null              null              null              null
spla_hru0077           0.00000      snut_hru0077              null              null              null              null
spla_hru0078           0.00000      snut_hru0078              null              null              null              null
spla_hru0079           0.00000      snut_hru0079              null              null              null              null
spla_hru0080           0.00000      snut_hru0080              null              null              null              null
spla_hru0081           0.00000      snut_hru0081              null              null              null              null
spla_hru0082           0.00000      snut_hru0082              null              null              null              null
spla_hru0083           0.00000      snut_hru0083              null              null              null              null
spla_hru0084           0.00000      snut_hru0084              null              null              null              null
spla_hru0085           0.00000      snut_hru0085              null              null              null              null
spla_hru0086           0.00000      snut_hru0086              null              null              null              null
spla_hru0087           0.00000      snut_hru0087              null              null              null              null
spla_hru0088           0.00000      snut_hru0088              null              null              null              null
spla_hru0089           0.00000      snut_hru0089              null              null              null              null
spla_hru0090           0.00000      snut_hru0090              null              null              null              null
spla_hru0091           0.00000      snut_hru0091              null              null              null              null
spla_hru0092           0.00000      snut_hru0092              null              null              null              null
spla_hru0093           0.00000      snut_hru0093              null              null              null              null
spla_hru0094           0.00000      snut_hru0094              null              null              null              null
spla_hru0095           0.00000      snut_hru0095              null              null              null              null
spla_hru0096           0.00000      snut_hru0096              null              null              null              null
spla_hru0097           0.00000      snut_hru0097              null              null              null              null
spla_hru0098           0.00000      snut_hru0098              null              null              null              null
spla_hru0099           0.00000      snut_hru0099              null              null              null              null
spla_hru0100           0.00000      snut_hru0100              null              null              null              null
spla_hru0101           0.00000      snut_hru0101              null              null              null              null
spla_hru0102           0.00000      snut_hru0102              null              null              null              null
spla_hru0103           0.00000      snut_hru0103              null              null              null              null
spla_hru0104           0.00000      snut_hru0104              null              null              null              null
spla_hru0105           0.00000      snut_hru0105              null              null              null              null
spla_hru0106           0.00000      snut_hru0106              null              null              null              null
spla_hru0107           0.00000      snut_hru0107              null              null              null              null
spla_hru0108           0.00000      snut_hru0108              null              null              null              null
spla_hru0109           0.00000      snut_hru0109              null              null              null              null
spla_hru0110           0.00000      snut_hru0110              null              null              null              null
spla_hru0111           0.00000      snut_hru0111              null              null              null              null
spla_hru0112           0.00000      snut_hru0112              null              null              null              null
spla_hru0113           0.00000      snut_hru0113              null              null              null              null
spla_hru0114           0.00000      snut_hru0114              null              null              null              null
spla_hru0115           0.00000      snut_hru0115              null              null              null              null
spla_hru0116           0.00000      snut_hru0116              null              null              null              null
spla_hru0117           0.00000      snut_hru0117              null              null              null              null
spla_hru0118           0.00000      snut_hru0118              null              null              null              null
spla_hru0119           0.00000      snut_hru0119              null              null              null              null
spla_hru0120           0.00000      snut_hru0120              null              null              null              null
spla_hru0121           0.00000      snut_hru0121              null              null              null              null
spla_hru0122           0.00000      snut_hru0122              null              null              null              null
spla_hru0123           0.00000      snut_hru0123              null              null              null              null
spla_hru0124           0.00000      snut_hru0124              null              null              null              null
spla_hru0125           0.00000      snut_hru0125              null              null              null              null
spla_hru0126           0.00000      snut_hru0126              null              null              null              null
spla_hru0127           0.00000      snut_hru0127              null              null              null              null
spla_hru0128           0.00000      snut_hru0128              null              null              null              null
spla_hru0129           0.00000      snut_hru0129              null              null              null              null
spla_hru0130           0.00000      snut_hru0130              null              null              null              null
spla_hru0131           0.00000      snut_hru0131              null              null              null              null
spla_hru0132           0.00000      snut_hru0132              null              null              null              null
spla_hru0133           0.00000      snut_hru0133              null              null              null              null
spla_hru0134           0.00000      snut_hru0134              null              null              null              null
spla_hru0135           0.00000      snut_hru0135              null              null              null              null
spla_hru0136           0.00000      snut_hru0136              null              null              null              null
spla_hru0137           0.00000      snut_hru0137              null              null              null              null
spla_hru0138           0.00000      snut_hru0138              null              null              null              null
spla_hru0139           0.00000      snut_hru0139              null              null              null              null
spla_hru0140           0.00000      snut_hru0140              null              null              null              null
spla_hru0141           0.00000      snut_hru0141              null              null              null              null
spla_hru0142           0.00000      snut_hru0142              null              null              null              null
spla_hru0143           0.00000      snut_hru0143              null              null              null              null
spla_hru0144           0.00000      snut_hru0144              null              null              null              null
spla_hru0145           0.00000      snut_hru0145              null              null              null              null
spla_hru0146           0.00000      snut_hru0146              null              null              null              null
spla_hru0147           0.00000      snut_hru0147              null              null              null              null
spla_hru0148           0.00000      snut_hru0148              null              null              null              null
spla_hru0149           0.00000      snut_hru0149              null              null              null              null
spla_hru0150           0.00000      snut_hru0150              null              null              null              null
spla_hru0151           0.00000      snut_hru0151              null              null              null              null
spla_hru0152           0.00000      snut_hru0152              null              null              null              null
spla_hru0153           0.00000      snut_hru0153              null              null              null              null
spla_hru0154           0.00000      snut_hru0154              null              null              null              null
spla_hru0155           0.00000      snut_hru0155              null              null              null              null
spla_hru0156           0.00000      snut_hru0156              null              null              null              null
spla_hru0157           0.00000      snut_hru0157              null              null              null              null
spla_hru0158           0.00000      snut_hru0158              null              null              null              null
spla_hru0159           0.00000      snut_hru0159              null              null              null              null
spla_hru0160           0.00000      snut_hru0160              null              null              null              null
spla_hru0161           0.00000      snut_hru0161              null              null              null              null
spla_hru0162           0.00000      snut_hru0162              null              null              null              null
spla_hru0163           0.00000      snut_hru0163              null              null              null              null
spla_hru0164           0.00000      snut_hru0164              null              null              null              null
spla_hru0165           0.00000      snut_hru0165              null              null              null              null
spla_hru0166           0.00000      snut_hru0166              null              null              null              null
spla_hru0167           0.00000      snut_hru0167              null              null              null              null
spla_hru0168           0.00000      snut_hru0168              null              null              null              null
spla_hru0169           0.00000      snut_hru0169              null              null              null              null
spla_hru0170           0.00000      snut_hru0170              null              null              null              null
spla_hru0171           0.00000      snut_hru0171              null              null              null              null
spla_hru0172           0.00000      snut_hru0172              null              null              null              null
spla_hru0173           0.00000      snut_hru0173              null              null              null              null
spla_hru0174           0.00000      snut_hru0174              null              null              null              null
spla_hru0175           0.00000      snut_hru0175              null              null              null              null
spla_hru0176           0.00000      snut_hru0176              null              null              null              null
spla_hru0177           0.00000      snut_hru0177              null              null              null              null
spla_hru0178           0.00000      snut_hru0178              null              null              null              null
spla_hru0179           0.00000      snut_hru0179              null              null              null              null
spla_hru0180           0.00000      snut_hru0180              null              null              null              null
spla_hru0181           0.00000      snut_hru0181              null              null              null              null
spla_hru0182           0.00000      snut_hru0182              null              null              null              null
spla_hru0183           0.00000      snut_hru0183              null              null              null              null
spla_hru0184           0.00000      snut_hru0184              null              null              null              null
spla_hru0185           0.00000      snut_hru0185              null              null              null              null
spla_hru0186           0.00000      snut_hru0186              null              null              null              null
spla_hru0187           0.00000      snut_hru0187              null              null              null              null
spla_hru0188           0.00000      snut_hru0188              null              null              null              null
spla_hru0189           0.00000      snut_hru0189              null              null              null              null
spla_hru0190           0.00000      snut_hru0190              null              null              null              null
spla_hru0191           0.00000      snut_hru0191              null              null              null              null
spla_hru0192           0.00000      snut_hru0192              null              null              null              null
spla_hru0193           0.00000      snut_hru0193              null              null              null              null
spla_hru0194           0.00000      snut_hru0194              null              null              null              null
spla_hru0195           0.00000      snut_hru0195              null              null              null              null
spla_hru0196           0.00000      snut_hru0196              null              null              null              null
spla_hru0197           0.00000      snut_hru0197              null              null              null              null
spla_hru0198           0.00000      snut_hru0198              null              null              null              null
spla_hru0199           0.00000      snut_hru0199              null              null              null              null
spla_hru0200           0.00000      snut_hru0200              null              null              null              null
spla_hru0201           0.00000      snut_hru0201              null              null              null              null
spla_hru0202           0.00000      snut_hru0202              null              null              null              null
spla_hru0203           0.00000      snut_hru0203              null              null              null              null
spla_hru0204           0.00000      snut_hru0204              null              null              null              null
spla_hru0205           0.00000      snut_hru0205              null              null              null              null
spla_hru0206           0.00000      snut_hru0206              null              null              null              null
spla_hru0207           0.00000      snut_hru0207              null              null              null              null
spla_hru0208           0.00000      snut_hru0208              null              null              null              null
spla_hru0209           0.00000      snut_hru0209              null              null              null              null
spla_hru0210           0.00000      snut_hru0210              null              null              null              null
spla_hru0211           0.00000      snut_hru0211              null              null              null              null
spla_hru0212           0.00000      snut_hru0212              null              null              null              null
spla_hru0213           0.00000      snut_hru0213              null              null              null              null
spla_hru0214           0.00000      snut_hru0214              null              null              null              null
spla_hru0215           0.00000      snut_hru0215              null              null              null              null
spla_hru0216           0.00000      snut_hru0216              null              null              null              null
spla_hru0217           0.00000      snut_hru0217              null              null              null              null
spla_hru0218           0.00000      snut_hru0218              null              null              null              null
spla_hru0219           0.00000      snut_hru0219              null              null              null              null
spla_hru0220           0.00000      snut_hru0220              null              null              null              null
spla_hru0221           0.00000      snut_hru0221              null              null              null              null
spla_hru0222           0.00000      snut_hru0222              null              null              null              null
spla_hru0223           0.00000      snut_hru0223              null              null              null              null
spla_hru0224           0.00000      snut_hru0224              null              null              null              null
spla_hru0225           0.00000      snut_hru0225              null              null              null              null
spla_hru0226           0.00000      snut_hru0226              null              null              null              null
spla_hru0227           0.00000      snut_hru0227              null              null              null              null
spla_hru0228           0.00000      snut_hru0228              null              null              null              null
spla_hru0229           0.00000      snut_hru0229              null              null              null              null
spla_hru0230           0.00000      snut_hru0230              null              null              null              null
spla_hru0231           0.00000      snut_hru0231              null              null              null              null
spla_hru0232           0.00000      snut_hru0232              null              null              null              null
spla_hru0233           0.00000      snut_hru0233              null              null              null              null
spla_hru0234           0.00000      snut_hru0234              null              null              null              null
spla_hru0235           0.00000      snut_hru0235              null              null              null              null
spla_hru0236           0.00000      snut_hru0236              null              null              null              null
spla_hru0237           0.00000      snut_hru0237              null              null              null              null
spla_hru0238           0.00000      snut_hru0238              null              null              null              null
spla_hru0239           0.00000      snut_hru0239              null              null              null              null
spla_hru0240           0.00000      snut_hru0240              null              null              null              null
spla_hru0241           0.00000      snut_hru0241              null              null              null              null
spla_hru0242           0.00000      snut_hru0242              null              null              null              null
spla_hru0243           0.00000      snut_hru0243              null              null              null              null
spla_hru0244           0.00000      snut_hru0244              null              null              null              null
spla_hru0245           0.00000      snut_hru0245              null              null              null              null
spla_hru0246           0.00000      snut_hru0246              null              null              null              null