soils.sol: written by SWAT+ editor v2.1.0 on 2023-05-02 16:02 for SWAT+ rev.60.5.4
name                            nly           hyd_grp        dp_tot    anion_excl      perc_crk  texture                              dp            bd           awc        soil_k        carbon          clay          silt          sand          rock           alb        usle_k            ec         caco3            ph  
HPJ71                             5                 D     860.00000       0.50000       0.50000  S                          
                                                                                                                               160.00000       1.34000       0.16000       1.50000       2.78000       6.62000      69.18000      24.20000       0.00000       0.00000       0.47000       0.00000       0.00000       0.00000  
                                                                                                                               360.00000       1.51000       0.21000       1.80000       1.14000       9.96000      79.24000      10.80000       0.00000       0.00000       0.47000       0.00000       0.00000       0.00000  
                                                                                                                               600.00000       1.49000       0.21000       1.90000       0.85000      14.22000      75.28000      10.50000       0.00000       0.00000       0.47000       0.00000       0.00000       0.00000  
                                                                                                                               860.00000       1.49000       0.20000       2.00000       0.00000      11.34000      66.16000      22.50000       0.00000       0.00000       0.47000       0.00000       0.00000       0.00000  
                                                                                                                              1500.00000       1.49000       0.21000       2.50000       0.00000      19.39000      68.01000      12.60000       0.00000       0.00000       0.47000       0.00000       0.00000       0.00000  
HPJ73                             3                 D     420.00000       0.50000       0.50000  S                          
                                                                                                                               150.00000       1.40000       0.20000       1.05000       2.40000      13.76000      62.14000      24.10000       0.00000       0.00000       0.48000       0.00000       0.00000       0.00000  
                                                                                                                               420.00000       1.51000       0.20000       2.15000       2.56000      12.26000      54.94000      32.80000       0.00000       0.00000       0.48000       0.00000       0.00000       0.00000  
                                                                                                                              1500.00000       1.54000       0.16000       1.80000       2.47000       9.38000      31.22000      59.40000       7.00000       0.00000       0.48000       0.00000       0.00000       0.00000  
HPJ34                             4                 B     620.00000       0.50000       0.50000  S                          
                                                                                                                               260.00000       1.34000       0.16000       9.00000       1.42000       9.50000      35.10000      55.40000       8.00000       0.00000       0.26000       0.00000       0.00000       0.00000  
                                                                                                                               440.00000       1.52000       0.14000      29.00000       0.45000       6.05000      30.95000      63.00000       8.00000       0.00000       0.26000       0.00000       0.00000       0.00000  
                                                                                                                               620.00000       1.55000       0.13000      10.00000       0.33000       7.43000      23.37000      69.20000       8.00000       0.00000       0.26000       0.00000       0.00000       0.00000  
                                                                                                                              1500.00000       1.57000       0.10000       9.00000       0.00000       6.16000      16.04000      77.80000      15.00000       0.00000       0.26000       0.00000       0.00000       0.00000  
HPJ50                             4                 C     600.00000       0.50000       0.50000  S                          
                                                                                                                               300.00000       1.40000       0.19000       1.54000       2.55000      10.53000      58.67000      30.80000      10.00000       0.00000       0.33000       0.00000       0.00000       0.00000  
                                                                                                                               600.00000       1.52000       0.14000       2.24000       0.25000       9.50000      26.90000      63.60000      10.00000       0.00000       0.33000       0.00000       0.00000       0.00000  
                                                                                                                               840.00000       1.55000       0.11000       4.05000       0.16000       8.58000      17.02000      74.40000      10.00000       0.00000       0.33000       0.00000       0.00000       0.00000  
                                                                                                                              1500.00000       1.55000       0.13000       4.05000       0.00000      13.76000      13.44000      72.80000      10.00000       0.00000       0.33000       0.00000       0.00000       0.00000  
HPJ32                             3                 A     440.00000       0.50000       0.50000  S                          
                                                                                                                               180.00000       1.40000       0.13000      20.00000       1.56000       8.81000      24.19000      67.00000      20.00000       0.00000       0.19000       0.00000       0.00000       0.00000  
                                                                                                                               420.00000       1.52000       0.10000      40.00000       0.45000       6.85000      18.15000      75.00000      40.00000       0.00000       0.19000       0.00000       0.00000       0.00000  
                                                                                                                              1500.00000       1.57000       0.09000      45.00000       0.29000       5.82000      15.18000      79.00000      60.00000       0.00000       0.19000       0.00000       0.00000       0.00000  
HPJ15                             4                 B     960.00000       0.50000       0.50000  S                          
                                                                                                                               240.00000       1.55000       0.19000       3.73000       1.51000       9.00000      69.00000      22.00000       5.00000       0.00000       0.51000       0.00000       0.00000       0.00000  
                                                                                                                               380.00000       1.55000       0.19000       3.73000       0.50000      13.00000      67.00000      20.00000       5.00000       0.00000       0.51000       0.00000       0.00000       0.00000  
                                                                                                                               480.00000       1.55000       0.21000       3.73000       0.30000      24.00000      63.00000      13.00000       5.00000       0.00000       0.51000       0.00000       0.00000       0.00000  
                                                                                                                               960.00000       1.55000       0.20000       0.43000       0.28000      22.00000      64.00000      14.00000       5.00000       0.00000       0.51000       0.00000       0.00000       0.00000  
HPJ29                             4                 B    1000.00000       0.50000       0.50000  S                          
                                                                                                                               250.00000       1.50000       0.15000       2.34000       1.51000       7.50000      27.50000      65.00000      12.50000       0.00000       0.33000       0.00000       0.00000       0.00000  
                                                                                                                               450.00000       1.50000       0.15000       2.34000       0.41000       7.50000      27.50000      65.00000      12.50000       0.00000       0.33000       0.00000       0.00000       0.00000  
                                                                                                                               600.00000       1.65000       0.13000       1.13000       0.28000       7.10000      24.60000      68.30000      12.50000       0.00000       0.33000       0.00000       0.00000       0.00000  
                                                                                                                              1000.00000       1.55000       0.20000       0.43000       0.28000      22.00000      64.00000      14.00000       5.00000       0.00000       0.51000       0.00000       0.00000       0.00000  
HPJ37                             3                 B     920.00000       0.50000       0.50000  S                          
                                                                                                                               220.00000       1.50000       0.15000       2.34000       1.70000       7.50000      27.50000      65.00000      37.50000       0.00000       0.16000       0.00000       0.00000       0.00000  
                                                                                                                               540.00000       1.50000       0.15000       2.34000       0.33000       7.50000      27.50000      65.00000      37.50000       0.00000       0.16000       0.00000       0.00000       0.00000  
                                                                                                                               920.00000       1.65000       0.13000       1.13000       0.20000       7.10000      24.60000      68.30000      37.50000       0.00000       0.16000       0.00000       0.00000       0.00000  
HPJ40                             3                 B     900.00000       0.50000       0.50000  S                          
                                                                                                                               220.00000       1.50000       0.15000       2.34000       1.80000       7.50000      27.50000      65.00000      12.50000       0.00000       0.41000       0.00000       0.00000       0.00000  
                                                                                                                               540.00000       1.50000       0.15000       2.34000       0.58000       7.50000      27.50000      65.00000      12.50000       0.00000       0.41000       0.00000       0.00000       0.00000  
                                                                                                                               900.00000       1.65000       0.13000       1.13000       0.32000       7.10000      24.60000      68.30000      12.50000       0.00000       0.41000       0.00000       0.00000       0.00000  
HPJ46                             4                 C    1100.00000       0.50000       0.50000  S                          
                                                                                                                               300.00000       1.50000       0.20000       5.29000       1.33000      17.00000      64.00000      19.00000       5.00000       0.00000       0.47000       0.00000       0.00000       0.00000  
                                                                                                                               440.00000       1.50000       0.20000       5.29000       0.91000      21.00000      64.00000      15.00000       5.00000       0.00000       0.47000       0.00000       0.00000       0.00000  
                                                                                                                               600.00000       1.50000       0.21000       5.29000       0.37000      29.00000      61.00000      10.00000       5.00000       0.00000       0.47000       0.00000       0.00000       0.00000  
                                                                                                                              1100.00000       1.55000       0.20000       1.91000       0.25000      18.00000      63.00000      19.00000       5.00000       0.00000       0.47000       0.00000       0.00000       0.00000  
HPJ47                             3                 C     790.00000       0.50000       0.50000  S                          
                                                                                                                               220.00000       1.50000       0.15000       2.34000       1.45000       7.50000      27.50000      65.00000       5.00000       0.00000       0.43000       0.00000       0.00000       0.00000  
                                                                                                                               540.00000       1.50000       0.15000       2.34000       0.75000       7.50000      27.50000      65.00000       5.00000       0.00000       0.43000       0.00000       0.00000       0.00000  
                                                                                                                               790.00000       1.65000       0.13000       1.13000       0.40000       7.10000      24.60000      68.30000       5.00000       0.00000       0.43000       0.00000       0.00000       0.00000  
HPJ58                             3                 C    1000.00000       0.50000       0.50000  S                          
                                                                                                                               250.00000       1.48000       0.22000       2.34000       1.32000      18.00000      57.00000      25.00000       5.00000       0.00000       0.42000       0.00000       0.00000       0.00000  
                                                                                                                               550.00000       1.54000       0.18000       2.34000       1.01000      21.00000      56.00000      23.00000       5.00000       0.00000       0.42000       0.00000       0.00000       0.00000  
                                                                                                                              1000.00000       1.62000       0.15000       1.22000       0.88000      17.00000      54.00000      29.00000       5.00000       0.00000       0.42000       0.00000       0.00000       0.00000  
HPJ64                             3                 C     800.00000       0.50000       0.50000  S                          
                                                                                                                               130.00000       1.45000       0.18000       0.08000       3.90000      19.60000      49.30000      31.10000      12.50000       0.00000       0.40000       0.00000       0.00000       0.00000  
                                                                                                                               400.00000       1.45000       0.19000       0.08000       1.41000      28.20000      56.80000      15.00000      12.50000       0.00000       0.40000       0.00000       0.00000       0.00000  
                                                                                                                               800.00000       1.60000       0.15000       0.08000       1.02000      32.30000      57.80000       9.90000      12.50000       0.00000       0.40000       0.00000       0.00000       0.00000  
HPJ67                             3                 D     850.00000       0.50000       0.50000  S                          
                                                                                                                               160.00000       1.45000       0.10000       0.08000       3.75000      12.30000      58.00000      29.70000      12.50000       0.00000       0.44000       0.00000       0.00000       0.00000  
                                                                                                                               360.00000       1.45000       0.07000       0.08000       0.72000      15.70000      52.60000      31.70000      12.50000       0.00000       0.44000       0.00000       0.00000       0.00000  
                                                                                                                               850.00000       1.60000       0.06000       0.08000       0.34000      21.70000      38.50000      39.80000      12.50000       0.00000       0.44000       0.00000       0.00000       0.00000  
HPJ68                             3                 D     800.00000       0.50000       0.50000  S                          
                                                                                                                               130.00000       1.45000       0.10000       0.08000       3.90000       9.50000      40.80000      49.70000      12.50000       0.00000       0.49000       0.00000       0.00000       0.00000  
                                                                                                                               400.00000       1.45000       0.07000       0.08000       1.41000      13.30000      57.10000      29.60000      12.50000       0.00000       0.46000       0.00000       0.00000       0.00000  
                                                                                                                               800.00000       1.60000       0.06000       0.08000       1.02000      15.30000      61.20000      23.50000      12.50000       0.00000       0.40000       0.00000       0.00000       0.00000  
HPJF1                             5                 B    1300.00000       0.50000       0.50000  S                          
                                                                                                                                80.00000       1.12000       0.13000       5.40000       2.80000       1.40000      46.70000      52.00000       7.50000       0.00000       0.00000       0.00000       0.00000       0.00000  
                                                                                                                               250.00000       1.50000       0.14000       5.40000       1.50000       1.50000      46.30000      52.20000       7.50000       0.00000       0.00000       0.00000       0.00000       0.00000  
                                                                                                                               450.00000       1.66000       0.15000       3.60000       0.60000       2.10000      49.90000      48.00000       7.50000       0.00000       0.00000       0.00000       0.00000       0.00000  
                                                                                                                               900.00000       1.74000       0.15000       3.60000       0.20000       2.50000      54.40000      43.10000       7.50000       0.00000       0.00000       0.00000       0.00000       0.00000  
                                                                                                                              1300.00000       1.44000       0.08000       9.00000       0.10000       0.80000      25.30000      74.00000       7.50000       0.00000       0.00000       0.00000       0.00000       0.00000  
HPJF2                             5                 B    1250.00000       0.50000       0.50000  S                          
                                                                                                                                80.00000       1.15000       0.17000       3.60000       2.80000       2.00000      73.70000      24.30000       2.50000       0.00000       0.00000       0.00000       0.00000       0.00000  
                                                                                                                               550.00000       1.43000       0.12000       5.40000       1.50000       1.50000      34.30000      64.20000       2.50000       0.00000       0.00000       0.00000       0.00000       0.00000  
                                                                                                                               750.00000       1.59000       0.11000       5.40000       0.60000       3.90000      27.70000      68.40000       7.50000       0.00000       0.00000       0.00000       0.00000       0.00000  
                                                                                                                              1050.00000       1.69000       0.15000       7.20000       0.20000       4.30000      31.50000      64.20000      17.50000       0.00000       0.00000       0.00000       0.00000       0.00000  
                                                                                                                              1250.00000       1.38000       0.11000       5.40000       0.10000       5.00000      18.10000      76.90000       7.50000       0.00000       0.00000       0.00000       0.00000       0.00000  
HPJF3                             5                 C    1050.00000       0.50000       0.50000  S                          
                                                                                                                               120.00000       1.13000       0.15000       3.60000       2.80000       1.10000      63.30000      35.50000       2.50000       0.00000       0.00000       0.00000       0.00000       0.00000  
                                                                                                                               220.00000       1.35000       0.16000       3.60000       1.50000       2.10000      55.60000      42.20000       2.50000       0.00000       0.00000       0.00000       0.00000       0.00000  
                                                                                                                               570.00000       1.60000       0.12000       5.40000       0.60000       1.60000      41.50000      57.00000       2.50000       0.00000       0.00000       0.00000       0.00000       0.00000  
                                                                                                                               950.00000       1.60000       0.14000       5.40000       0.20000       2.50000      44.10000      53.30000       2.50000       0.00000       0.00000       0.00000       0.00000       0.00000  
                                                                                                                              1050.00000       1.28000       0.10000       5.40000       0.10000       1.30000      27.20000      71.60000       7.50000       0.00000       0.00000       0.00000       0.00000       0.00000  
