tiledrain.str: written by SWAT+ editor v2.1.0 on 2023-05-02 16:02 for SWAT+ rev.60.5.4
name                        dp          t_fc           lag           rad          dist         drain          pump      lat_ksat  
mw24_1000           1000.00000      48.00000      24.00000     50.00000      10000.00000      10.00000       1.00000       1.00000  
