tmp.cli: Temperature file names - file written by SWATprepR R package 2024-08-29 12:40:28
filename
sta_id1.tmp
sta_id10.tmp
sta_id11.tmp
sta_id12.tmp
sta_id13.tmp
sta_id14.tmp
sta_id15.tmp
sta_id16.tmp
sta_id17.tmp
sta_id18.tmp
sta_id19.tmp
sta_id2.tmp
sta_id3.tmp
sta_id4.tmp
sta_id5.tmp
sta_id6.tmp
sta_id7.tmp
sta_id8.tmp
sta_id9.tmp
