topography.hyd: written by SWAT+ editor v2.1.0 on 2023-05-02 16:02 for SWAT+ rev.60.5.4
name                       slp       slp_len       lat_len      dist_cha         depos  
topohru0001            0.04155      30.00000      30.00000     121.00000       0.00000  
topohru0002            0.03936      30.00000      30.00000     121.00000       0.00000  
topohru0003            0.02417      30.00000      30.00000     121.00000       0.00000  
topohru0004            0.05467      30.00000      30.00000     121.00000       0.00000  
topohru0005            0.10206      30.00000      30.00000     121.00000       0.00000  
topohru0006            0.09253      30.00000      30.00000     121.00000       0.00000  
topohru0007            0.09826      30.00000      30.00000     121.00000       0.00000  
topohru0008            0.06305      30.00000      30.00000     121.00000       0.00000  
topohru0009            0.01973      30.00000      30.00000     121.00000       0.00000  
topohru0010            0.04627      30.00000      30.00000     121.00000       0.00000  
topohru0011            0.05830      30.00000      30.00000     121.00000       0.00000  
topohru0012            0.09342      30.00000      30.00000     121.00000       0.00000  
topohru0013            0.06505      30.00000      30.00000     121.00000       0.00000  
topohru0014            0.06641      30.00000      30.00000     121.00000       0.00000  
topohru0015            0.08662      30.00000      30.00000     121.00000       0.00000  
topohru0016            0.04316      30.00000      30.00000     121.00000       0.00000  
topohru0017            0.06751      30.00000      30.00000     121.00000       0.00000  
topohru0018            0.06148      30.00000      30.00000     121.00000       0.00000  
topohru0019            0.07666      30.00000      30.00000     121.00000       0.00000  
topohru0020            0.05924      30.00000      30.00000     121.00000       0.00000  
topohru0021            0.09068      30.00000      30.00000     121.00000       0.00000  
topohru0022            0.06212      30.00000      30.00000     121.00000       0.00000  
topohru0023            0.06264      30.00000      30.00000     121.00000       0.00000  
topohru0024            0.05093      30.00000      30.00000     121.00000       0.00000  
topohru0025            0.06648      30.00000      30.00000     121.00000       0.00000  
topohru0026            0.05812      30.00000      30.00000     121.00000       0.00000  
topohru0027            0.06443      30.00000      30.00000     121.00000       0.00000  
topohru0028            0.06205      30.00000      30.00000     121.00000       0.00000  
topohru0029            0.06292      30.00000      30.00000     121.00000       0.00000  
topohru0030            0.08367      30.00000      30.00000     121.00000       0.00000  
topohru0031            0.11980      30.00000      30.00000     121.00000       0.00000  
topohru0032            0.16473      30.00000      30.00000     121.00000       0.00000  
topohru0033            0.05821      30.00000      30.00000     121.00000       0.00000  
topohru0034            0.09791      30.00000      30.00000     121.00000       0.00000  
topohru0035            0.14844      30.00000      30.00000     121.00000       0.00000  
topohru0036            0.08019      30.00000      30.00000     121.00000       0.00000  
topohru0037            0.09616      30.00000      30.00000     121.00000       0.00000  
topohru0038            0.07774      30.00000      30.00000     121.00000       0.00000  
topohru0039            0.12636      30.00000      30.00000     121.00000       0.00000  
topohru0040            0.05246      30.00000      30.00000     121.00000       0.00000  
topohru0041            0.04436      30.00000      30.00000     121.00000       0.00000  
topohru0042            0.09028      30.00000      30.00000     121.00000       0.00000  
topohru0043            0.09950      30.00000      30.00000     121.00000       0.00000  
topohru0044            0.10087      30.00000      30.00000     121.00000       0.00000  
topohru0045            0.07304      30.00000      30.00000     121.00000       0.00000  
topohru0046            0.13493      30.00000      30.00000     121.00000       0.00000  
topohru0047            0.06638      30.00000      30.00000     121.00000       0.00000  
topohru0048            0.06841      30.00000      30.00000     121.00000       0.00000  
topohru0049            0.09944      30.00000      30.00000     121.00000       0.00000  
topohru0050            0.11711      30.00000      30.00000     121.00000       0.00000  
topohru0051            0.08781      30.00000      30.00000     121.00000       0.00000  
topohru0052            0.04968      30.00000      30.00000     121.00000       0.00000  
topohru0053            0.12236      30.00000      30.00000     121.00000       0.00000  
topohru0054            0.08278      30.00000      30.00000     121.00000       0.00000  
topohru0055            0.12557      30.00000      30.00000     121.00000       0.00000  
topohru0056            0.14487      30.00000      30.00000     121.00000       0.00000  
topohru0057            0.07151      30.00000      30.00000     121.00000       0.00000  
topohru0058            0.07653      30.00000      30.00000     121.00000       0.00000  
topohru0059            0.01026      30.00000      30.00000     121.00000       0.00000  
topohru0060            0.01135      30.00000      30.00000     121.00000       0.00000  
topohru0061            0.04761      30.00000      30.00000     121.00000       0.00000  
topohru0062            0.04383      30.00000      30.00000     121.00000       0.00000  
topohru0063            0.01696      30.00000      30.00000     121.00000       0.00000  
topohru0064            0.01746      30.00000      30.00000     121.00000       0.00000  
topohru0065            0.06024      30.00000      30.00000     121.00000       0.00000  
topohru0066            0.03291      30.00000      30.00000     121.00000       0.00000  
topohru0067            0.03883      30.00000      30.00000     121.00000       0.00000  
topohru0068            0.03417      30.00000      30.00000     121.00000       0.00000  
topohru0069            0.01438      30.00000      30.00000     121.00000       0.00000  
topohru0070            0.02428      30.00000      30.00000     121.00000       0.00000  
topohru0071            0.02491      30.00000      30.00000     121.00000       0.00000  
topohru0072            0.04401      30.00000      30.00000     121.00000       0.00000  
topohru0073            0.02383      30.00000      30.00000     121.00000       0.00000  
topohru0074            0.01590      30.00000      30.00000     121.00000       0.00000  
topohru0075            0.01859      30.00000      30.00000     121.00000       0.00000  
topohru0076            0.02020      30.00000      30.00000     121.00000       0.00000  
topohru0077            0.05520      30.00000      30.00000     121.00000       0.00000  
topohru0078            0.03069      30.00000      30.00000     121.00000       0.00000  
topohru0079            0.03038      30.00000      30.00000     121.00000       0.00000  
topohru0080            0.02369      30.00000      30.00000     121.00000       0.00000  
topohru0081            0.11001      30.00000      30.00000     121.00000       0.00000  
topohru0082            0.07597      30.00000      30.00000     121.00000       0.00000  
topohru0083            0.08539      30.00000      30.00000     121.00000       0.00000  
topohru0084            0.05897      30.00000      30.00000     121.00000       0.00000  
topohru0085            0.07826      30.00000      30.00000     121.00000       0.00000  
topohru0086            0.07512      30.00000      30.00000     121.00000       0.00000  
topohru0087            0.05249      30.00000      30.00000     121.00000       0.00000  
topohru0088            0.06467      30.00000      30.00000     121.00000       0.00000  
topohru0089            0.06586      30.00000      30.00000     121.00000       0.00000  
topohru0090            0.06531      30.00000      30.00000     121.00000       0.00000  
topohru0091            0.09608      30.00000      30.00000     121.00000       0.00000  
topohru0092            0.09749      30.00000      30.00000     121.00000       0.00000  
topohru0093            0.04877      30.00000      30.00000     121.00000       0.00000  
topohru0094            0.07650      30.00000      30.00000     121.00000       0.00000  
topohru0095            0.09893      30.00000      30.00000     121.00000       0.00000  
topohru0096            0.06556      30.00000      30.00000     121.00000       0.00000  
topohru0097            0.02765      30.00000      30.00000     121.00000       0.00000  
topohru0098            0.08359      30.00000      30.00000     121.00000       0.00000  
topohru0099            0.04926      30.00000      30.00000     121.00000       0.00000  
topohru0100            0.02561      30.00000      30.00000     121.00000       0.00000  
topohru0101            0.09313      30.00000      30.00000     121.00000       0.00000  
topohru0102            0.07158      30.00000      30.00000     121.00000       0.00000  
topohru0103            0.06149      30.00000      30.00000     121.00000       0.00000  
topohru0104            0.05790      30.00000      30.00000     121.00000       0.00000  
topohru0105            0.05430      30.00000      30.00000     121.00000       0.00000  
topohru0106            0.05038      30.00000      30.00000     121.00000       0.00000  
topohru0107            0.05509      30.00000      30.00000     121.00000       0.00000  
topohru0108            0.05803      30.00000      30.00000     121.00000       0.00000  
topohru0109            0.05052      30.00000      30.00000     121.00000       0.00000  
topohru0110            0.05501      30.00000      30.00000     121.00000       0.00000  
topohru0111            0.07920      30.00000      30.00000     121.00000       0.00000  
topohru0112            0.06507      30.00000      30.00000     121.00000       0.00000  
topohru0113            0.06974      30.00000      30.00000     121.00000       0.00000  
topohru0114            0.04639      30.00000      30.00000     121.00000       0.00000  
topohru0115            0.05629      30.00000      30.00000     121.00000       0.00000  
topohru0116            0.07152      30.00000      30.00000     121.00000       0.00000  
topohru0117            0.05680      30.00000      30.00000     121.00000       0.00000  
topohru0118            0.07647      30.00000      30.00000     121.00000       0.00000  
topohru0119            0.05073      30.00000      30.00000     121.00000       0.00000  
topohru0120            0.07631      30.00000      30.00000     121.00000       0.00000  
topohru0121            0.10111      30.00000      30.00000     121.00000       0.00000  
topohru0122            0.04680      30.00000      30.00000     121.00000       0.00000  
topohru0123            0.07261      30.00000      30.00000     121.00000       0.00000  
topohru0124            0.07852      30.00000      30.00000     121.00000       0.00000  
topohru0125            0.05948      30.00000      30.00000     121.00000       0.00000  
topohru0126            0.06092      30.00000      30.00000     121.00000       0.00000  
topohru0127            0.08493      30.00000      30.00000     121.00000       0.00000  
topohru0128            0.07411      30.00000      30.00000     121.00000       0.00000  
topohru0129            0.04702      30.00000      30.00000     121.00000       0.00000  
topohru0130            0.05897      30.00000      30.00000     121.00000       0.00000  
topohru0131            0.06124      30.00000      30.00000     121.00000       0.00000  
topohru0132            0.13700      30.00000      30.00000     121.00000       0.00000  
topohru0133            0.07339      30.00000      30.00000     121.00000       0.00000  
topohru0134            0.12942      30.00000      30.00000     121.00000       0.00000  
topohru0135            0.10943      30.00000      30.00000     121.00000       0.00000  
topohru0136            0.11756      30.00000      30.00000     121.00000       0.00000  
topohru0137            0.11428      30.00000      30.00000     121.00000       0.00000  
topohru0138            0.08407      30.00000      30.00000     121.00000       0.00000  
topohru0139            0.09247      30.00000      30.00000     121.00000       0.00000  
topohru0140            0.10841      30.00000      30.00000     121.00000       0.00000  
topohru0141            0.07704      30.00000      30.00000     121.00000       0.00000  
topohru0142            0.09413      30.00000      30.00000     121.00000       0.00000  
topohru0143            0.10253      30.00000      30.00000     121.00000       0.00000  
topohru0144            0.08227      30.00000      30.00000     121.00000       0.00000  
topohru0145            0.08891      30.00000      30.00000     121.00000       0.00000  
topohru0146            0.09617      30.00000      30.00000     121.00000       0.00000  
topohru0147            0.09106      30.00000      30.00000     121.00000       0.00000  
topohru0148            0.07679      30.00000      30.00000     121.00000       0.00000  
topohru0149            0.03977      30.00000      30.00000     121.00000       0.00000  
topohru0150            0.05440      30.00000      30.00000     121.00000       0.00000  
topohru0151            0.06342      30.00000      30.00000     121.00000       0.00000  
topohru0152            0.08808      30.00000      30.00000     121.00000       0.00000  
topohru0153            0.07204      30.00000      30.00000     121.00000       0.00000  
topohru0154            0.04584      30.00000      30.00000     121.00000       0.00000  
topohru0155            0.06368      30.00000      30.00000     121.00000       0.00000  
topohru0156            0.06157      30.00000      30.00000     121.00000       0.00000  
topohru0157            0.06557      30.00000      30.00000     121.00000       0.00000  
topohru0158            0.04001      30.00000      30.00000     121.00000       0.00000  
topohru0159            0.05014      30.00000      30.00000     121.00000       0.00000  
topohru0160            0.05750      30.00000      30.00000     121.00000       0.00000  
topohru0161            0.03864      30.00000      30.00000     121.00000       0.00000  
topohru0162            0.06933      30.00000      30.00000     121.00000       0.00000  
topohru0163            0.06623      30.00000      30.00000     121.00000       0.00000  
topohru0164            0.07595      30.00000      30.00000     121.00000       0.00000  
topohru0165            0.08007      30.00000      30.00000     121.00000       0.00000  
topohru0166            0.07132      30.00000      30.00000     121.00000       0.00000  
topohru0167            0.09505      30.00000      30.00000     121.00000       0.00000  
topohru0168            0.14012      30.00000      30.00000     121.00000       0.00000  
topohru0169            0.13397      30.00000      30.00000     121.00000       0.00000  
topohru0170            0.11958      30.00000      30.00000     121.00000       0.00000  
topohru0171            0.08852      30.00000      30.00000     121.00000       0.00000  
topohru0172            0.11118      30.00000      30.00000     121.00000       0.00000  
topohru0173            0.09373      30.00000      30.00000     121.00000       0.00000  
topohru0174            0.10427      30.00000      30.00000     121.00000       0.00000  
topohru0175            0.07029      30.00000      30.00000     121.00000       0.00000  
topohru0176            0.00647      30.00000      30.00000     121.00000       0.00000  
topohru0177            0.04398      30.00000      30.00000     121.00000       0.00000  
topohru0178            0.08599      30.00000      30.00000     121.00000       0.00000  
topohru0179            0.15125      30.00000      30.00000     121.00000       0.00000  
topohru0180            0.11497      30.00000      30.00000     121.00000       0.00000  
topohru0181            0.06442      30.00000      30.00000     121.00000       0.00000  
topohru0182            0.03619      30.00000      30.00000     121.00000       0.00000  
topohru0183            0.02159      30.00000      30.00000     121.00000       0.00000  
topohru0184            0.03084      30.00000      30.00000     121.00000       0.00000  
topohru0185            0.12292      30.00000      30.00000     121.00000       0.00000  
topohru0186            0.08104      30.00000      30.00000     121.00000       0.00000  
topohru0187            0.10593      30.00000      30.00000     121.00000       0.00000  
topohru0188            0.11676      30.00000      30.00000     121.00000       0.00000  
topohru0189            0.09639      30.00000      30.00000     121.00000       0.00000  
topohru0190            0.09310      30.00000      30.00000     121.00000       0.00000  
topohru0191            0.06313      30.00000      30.00000     121.00000       0.00000  
topohru0192            0.02990      30.00000      30.00000     121.00000       0.00000  
topohru0193            0.07810      30.00000      30.00000     121.00000       0.00000  
topohru0194            0.10938      30.00000      30.00000     121.00000       0.00000  
topohru0195            0.12685      30.00000      30.00000     121.00000       0.00000  
topohru0196            0.09807      30.00000      30.00000     121.00000       0.00000  
topohru0197            0.08808      30.00000      30.00000     121.00000       0.00000  
topohru0198            0.09303      30.00000      30.00000     121.00000       0.00000  
topohru0199            0.07594      30.00000      30.00000     121.00000       0.00000  
topohru0200            0.15724      30.00000      30.00000     121.00000       0.00000  
topohru0201            0.15657      30.00000      30.00000     121.00000       0.00000  
topohru0202            0.03559      30.00000      30.00000     121.00000       0.00000  
topohru0203            0.01952      30.00000      30.00000     121.00000       0.00000  
topohru0204            0.03722      30.00000      30.00000     121.00000       0.00000  
topohru0205            0.02116      30.00000      30.00000     121.00000       0.00000  
topohru0206            0.03907      30.00000      30.00000     121.00000       0.00000  
topohru0207            0.09796      30.00000      30.00000     121.00000       0.00000  
topohru0208            0.13619      30.00000      30.00000     121.00000       0.00000  
topohru0209            0.11175      30.00000      30.00000     121.00000       0.00000  
topohru0210            0.07303      30.00000      30.00000     121.00000       0.00000  
topohru0211            0.11158      30.00000      30.00000     121.00000       0.00000  
topohru0212            0.03768      30.00000      30.00000     121.00000       0.00000  
topohru0213            0.05702      30.00000      30.00000     121.00000       0.00000  
topohru0214            0.02416      30.00000      30.00000     121.00000       0.00000  
topohru0215            0.06061      30.00000      30.00000     121.00000       0.00000  
topohru0216            0.10611      30.00000      30.00000     121.00000       0.00000  
topohru0217            0.08005      30.00000      30.00000     121.00000       0.00000  
topohru0218            0.10081      30.00000      30.00000     121.00000       0.00000  
topohru0219            0.09460      30.00000      30.00000     121.00000       0.00000  
topohru0220            0.10107      30.00000      30.00000     121.00000       0.00000  
topohru0221            0.10916      30.00000      30.00000     121.00000       0.00000  
topohru0222            0.11644      30.00000      30.00000     121.00000       0.00000  
topohru0223            0.11181      30.00000      30.00000     121.00000       0.00000  
topohru0224            0.10449      30.00000      30.00000     121.00000       0.00000  
topohru0225            0.11815      30.00000      30.00000     121.00000       0.00000  
topohru0226            0.04526      30.00000      30.00000     121.00000       0.00000  
topohru0227            0.07552      30.00000      30.00000     121.00000       0.00000  
topohru0228            0.09993      30.00000      30.00000     121.00000       0.00000  
topohru0229            0.08782      30.00000      30.00000     121.00000       0.00000  
topohru0230            0.03052      30.00000      30.00000     121.00000       0.00000  
topohru0231            0.02847      30.00000      30.00000     121.00000       0.00000  
topohru0232            0.06695      30.00000      30.00000     121.00000       0.00000  
topohru0233            0.09882      30.00000      30.00000     121.00000       0.00000  
topohru0234            0.05200      30.00000      30.00000     121.00000       0.00000  
topohru0235            0.05703      30.00000      30.00000     121.00000       0.00000  
topohru0236            0.04530      30.00000      30.00000     121.00000       0.00000  
topohru0237            0.02794      30.00000      30.00000     121.00000       0.00000  
topohru0238            0.05565      30.00000      30.00000     121.00000       0.00000  
topohru0239            0.07713      30.00000      30.00000     121.00000       0.00000  
topohru0240            0.10435      30.00000      30.00000     121.00000       0.00000  
topohru0241            0.11444      30.00000      30.00000     121.00000       0.00000  
topohru0242            0.06697      30.00000      30.00000     121.00000       0.00000  
topohru0243            0.05403      30.00000      30.00000     121.00000       0.00000  
topohru0244            0.06344      30.00000      30.00000     121.00000       0.00000  
topohru0245            0.08309      30.00000      30.00000     121.00000       0.00000  
topohru0246            0.04743      30.00000      30.00000     121.00000       0.00000  
topohru0247            0.08994      30.00000      30.00000     121.00000       0.00000  
topohru0248            0.15731      30.00000      30.00000     121.00000       0.00000  
topohru0249            0.02435      30.00000      30.00000     121.00000       0.00000  
topohru0250            0.08882      30.00000      30.00000     121.00000       0.00000  
topohru0251            0.06352      30.00000      30.00000     121.00000       0.00000  
topohru0252            0.05931      30.00000      30.00000     121.00000       0.00000  
topohru0253            0.10090      30.00000      30.00000     121.00000       0.00000  
topohru0254            0.07833      30.00000      30.00000     121.00000       0.00000  
topohru0255            0.07592      30.00000      30.00000     121.00000       0.00000  
topohru0256            0.05474      30.00000      30.00000     121.00000       0.00000  
topohru0257            0.14554      30.00000      30.00000     121.00000       0.00000  
topohru0258            0.07680      30.00000      30.00000     121.00000       0.00000  
topohru0259            0.10490      30.00000      30.00000     121.00000       0.00000  
topohru0260            0.10454      30.00000      30.00000     121.00000       0.00000  
topohru0261            0.06398      30.00000      30.00000     121.00000       0.00000  
topohru0262            0.04733      30.00000      30.00000     121.00000       0.00000  
topohru0263            0.03412      30.00000      30.00000     121.00000       0.00000  
topohru0264            0.07207      30.00000      30.00000     121.00000       0.00000  
topohru0265            0.02119      30.00000      30.00000     121.00000       0.00000  
topohru0266            0.06984      30.00000      30.00000     121.00000       0.00000  
topohru0267            0.05009      30.00000      30.00000     121.00000       0.00000  
topohru0268            0.04795      30.00000      30.00000     121.00000       0.00000  
topohru0269            0.05425      30.00000      30.00000     121.00000       0.00000  
topohru0270            0.06918      30.00000      30.00000     121.00000       0.00000  
topohru0271            0.07603      30.00000      30.00000     121.00000       0.00000  
topohru0272            0.06599      30.00000      30.00000     121.00000       0.00000  
topohru0273            0.06043      30.00000      30.00000     121.00000       0.00000  
topohru0274            0.07293      30.00000      30.00000     121.00000       0.00000  
topohru0275            0.07032      30.00000      30.00000     121.00000       0.00000  
topohru0276            0.10331      30.00000      30.00000     121.00000       0.00000  
topohru0277            0.09217      30.00000      30.00000     121.00000       0.00000  
topohru0278            0.04456      30.00000      30.00000     121.00000       0.00000  
topohru0279            0.06052      30.00000      30.00000     121.00000       0.00000  
topohru0280            0.08424      30.00000      30.00000     121.00000       0.00000  
topohru0281            0.07937      30.00000      30.00000     121.00000       0.00000  
topohru0282            0.10016      30.00000      30.00000     121.00000       0.00000  
topohru0283            0.10509      30.00000      30.00000     121.00000       0.00000  
topohru0284            0.10008      30.00000      30.00000     121.00000       0.00000  
topohru0285            0.05721      30.00000      30.00000     121.00000       0.00000  
topohru0286            0.08731      30.00000      30.00000     121.00000       0.00000  
topohru0287            0.07081      30.00000      30.00000     121.00000       0.00000  
topohru0288            0.07973      30.00000      30.00000     121.00000       0.00000  
topohru0289            0.07462      30.00000      30.00000     121.00000       0.00000  
topohru0290            0.07526      30.00000      30.00000     121.00000       0.00000  
topohru0291            0.15628      30.00000      30.00000     121.00000       0.00000  
topohru0292            0.12018      30.00000      30.00000     121.00000       0.00000  
topohru0293            0.09236      30.00000      30.00000     121.00000       0.00000  
topohru0294            0.12715      30.00000      30.00000     121.00000       0.00000  
topohru0295            0.10256      30.00000      30.00000     121.00000       0.00000  
topohru0296            0.09405      30.00000      30.00000     121.00000       0.00000  
topohru0297            0.06155      30.00000      30.00000     121.00000       0.00000  
topohru0298            0.06860      30.00000      30.00000     121.00000       0.00000  
topohru0299            0.07247      30.00000      30.00000     121.00000       0.00000  
topohru0300            0.03684      30.00000      30.00000     121.00000       0.00000  
topohru0301            0.05547      30.00000      30.00000     121.00000       0.00000  
topohru0302            0.05407      30.00000      30.00000     121.00000       0.00000  
topohru0303            0.05547      30.00000      30.00000     121.00000       0.00000  
topohru0304            0.15439      30.00000      30.00000     121.00000       0.00000  
topohru0305            0.12053      30.00000      30.00000     121.00000       0.00000  
topohru0306            0.07328      30.00000      30.00000     121.00000       0.00000  
topohru0307            0.08768      30.00000      30.00000     121.00000       0.00000  
topohru0308            0.06023      30.00000      30.00000     121.00000       0.00000  
topohru0309            0.09354      30.00000      30.00000     121.00000       0.00000  
topohru0310            0.10082      30.00000      30.00000     121.00000       0.00000  
topohru0311            0.05472      30.00000      30.00000     121.00000       0.00000  
topohru0312            0.05532      30.00000      30.00000     121.00000       0.00000  
topohru0313            0.06720      30.00000      30.00000     121.00000       0.00000  
topohru0314            0.04734      30.00000      30.00000     121.00000       0.00000  
topohru0315            0.05504      30.00000      30.00000     121.00000       0.00000  
topohru0316            0.06145      30.00000      30.00000     121.00000       0.00000  
topohru0317            0.04655      30.00000      30.00000     121.00000       0.00000  
topohru0318            0.07540      30.00000      30.00000     121.00000       0.00000  
topohru0319            0.06900      30.00000      30.00000     121.00000       0.00000  
topohru0320            0.06523      30.00000      30.00000     121.00000       0.00000  
topohru0321            0.07855      30.00000      30.00000     121.00000       0.00000  
topohru0322            0.07258      30.00000      30.00000     121.00000       0.00000  
topohru0323            0.07744      30.00000      30.00000     121.00000       0.00000  
topohru0324            0.04484      30.00000      30.00000     121.00000       0.00000  
topohru0325            0.05060      30.00000      30.00000     121.00000       0.00000  
topohru0326            0.06495      30.00000      30.00000     121.00000       0.00000  
topohru0327            0.09806      30.00000      30.00000     121.00000       0.00000  
topohru0328            0.06913      30.00000      30.00000     121.00000       0.00000  
topohru0329            0.07722      30.00000      30.00000     121.00000       0.00000  
topohru0330            0.05250      30.00000      30.00000     121.00000       0.00000  
topohru0331            0.10423      30.00000      30.00000     121.00000       0.00000  
topohru0332            0.08019      30.00000      30.00000     121.00000       0.00000  
topohru0333            0.07839      30.00000      30.00000     121.00000       0.00000  
topohru0334            0.06392      30.00000      30.00000     121.00000       0.00000  
topohru0335            0.08657      30.00000      30.00000     121.00000       0.00000  