weather-wgn.cli: written by SWATprepR R package on 2024-08-29 12:40:20 for SWAT+ rev.60.5.4
ID1                            49.67622      15.04166      462.99579       16 
  tmp_max_ave   tmp_min_ave    tmp_max_sd    tmp_min_sd       pcp_ave        pcp_sd      pcp_skew       wet_dry       wet_wet      pcp_days       pcp_hhr       slr_ave       dew_ave       wnd_ave
      1.92116      -3.93583       4.71355       5.56816       1.36143       2.58910       3.11045       0.40449       0.77044      19.87500       6.40997       3.29353       0.84968       3.01448
      3.79767      -3.68228       5.35930       5.29019       1.04765       2.22651       3.28479       0.36000       0.71429      15.75000       6.04373       6.04513       0.80717       2.76463
      8.64646      -0.94798       5.13765       3.93597       1.25281       2.70338       3.60184       0.34579       0.73404      17.62500       8.74913      10.16344       0.76137       2.77007
     15.07803       2.58815       5.46834       3.55735       1.06563       2.80410       5.84477       0.31474       0.65066      14.31250      13.38261      15.98991       0.71103       2.45036
     18.63534       6.91712       4.72038       3.61057       2.30799       4.46704       3.07297       0.43316       0.73786      19.31250      13.45327      18.04695       0.72938       2.47180
     23.13767      11.12334       4.78393       3.26883       2.71894       6.37733       4.61657       0.44681       0.70890      18.25000      21.20245      20.85358       0.71848       2.17292
     25.29450      12.58875       4.45093       2.89816       2.48140       5.29062       3.19603       0.44974       0.72313      19.18750      14.15460      20.53865       0.70415       1.95190
     24.55263      12.11515       4.66194       3.12206       2.65209       6.37500       4.56929       0.41327       0.72667      18.75000      23.88467      17.06443       0.73768       1.83972
     19.61030       8.47337       4.57232       3.33860       1.48698       4.11862       4.59644       0.41546       0.68498      17.06250      12.89517      12.17824       0.78805       2.05669
     13.50441       4.38038       4.61849       3.82735       1.40503       3.11215       3.29576       0.29583       0.71875      16.00000       8.51130       7.23767       0.83482       2.33394
      7.62566       1.55446       4.22716       3.97709       1.22637       2.74092       3.41708       0.38350       0.70803      17.12500       7.75222       3.51795       0.86624       2.64673
      3.61008      -1.80649       4.24983       4.47025       1.09265       2.12294       3.07246       0.46875       0.70395      19.00000       6.01752       2.58648       0.85750       2.97960
ID10                           49.64054      15.04876      480.49741       16 
  tmp_max_ave   tmp_min_ave    tmp_max_sd    tmp_min_sd       pcp_ave        pcp_sd      pcp_skew       wet_dry       wet_wet      pcp_days       pcp_hhr       slr_ave       dew_ave       wnd_ave
      1.68499      -3.87555       4.67576       5.37143       1.42643       2.62519       2.96571       0.40449       0.77044      19.87500       6.73936       3.29353       0.85984       3.51972
      3.46446      -3.50754       5.36262       5.17800       1.07886       2.24206       3.18243       0.36000       0.71429      15.75000       5.90506       6.04513       0.81490       3.29139
      8.24508      -0.69255       5.19089       3.81735       1.28301       2.66694       3.25998       0.34579       0.73404      17.62500       7.10522      10.16344       0.76442       3.29587
     14.66791       2.97767       5.44488       3.47089       1.15350       2.83210       4.73629       0.31474       0.65066      14.31250      11.96703      15.98991       0.70317       2.85529
     18.18623       7.09576       4.69736       3.50548       2.36505       4.48942       2.98979       0.43316       0.73786      19.31250      13.46885      18.04695       0.72538       2.85734
     22.70219      11.18332       4.72250       3.18458       2.77330       6.35733       4.49398       0.44681       0.70890      18.25000      21.34037      20.85358       0.71550       2.59869
     24.90159      12.64023       4.35914       2.80938       2.50024       5.15384       3.10310       0.44974       0.72313      19.18750      14.15118      20.53865       0.69801       2.43348
     24.16054      12.24969       4.63525       3.01929       2.75542       6.48429       4.55535       0.41327       0.72667      18.75000      25.99892      17.06443       0.72724       2.29474
     19.20085       8.68106       4.56104       3.24613       1.58366       4.35835       4.60054       0.41546       0.68498      17.06250      13.33550      12.17824       0.78141       2.51784
     13.18955       4.50816       4.64504       3.76379       1.42958       3.17072       3.24317       0.29583       0.71875      16.00000       8.47217       7.23767       0.83425       2.77263
      7.32479       1.55998       4.26468       3.89987       1.24626       2.75983       3.47772       0.38350       0.70803      17.12500       8.40188       3.51795       0.87181       3.11400
      3.37934      -1.79199       4.25991       4.37450       1.10301       2.10495       3.15540       0.46875       0.70395      19.00000       6.42821       2.58648       0.86381       3.48459
ID11                           49.64284      15.07622      411.46808       16 
  tmp_max_ave   tmp_min_ave    tmp_max_sd    tmp_min_sd       pcp_ave        pcp_sd      pcp_skew       wet_dry       wet_wet      pcp_days       pcp_hhr       slr_ave       dew_ave       wnd_ave
      1.69639      -3.88892       4.67860       5.38098       1.42985       2.63340       2.95999       0.40449       0.77044      19.87500       6.70137       3.29353       0.85906       3.48347
      3.47977      -3.52883       5.35781       5.17961       1.08187       2.24768       3.18740       0.36000       0.71429      15.75000       5.98181       6.04513       0.81447       3.25768
      8.26176      -0.71820       5.18507       3.81947       1.28641       2.68126       3.28466       0.34579       0.73404      17.62500       7.30012      10.16344       0.76436       3.25656
     14.68613       2.94706       5.44893       3.47432       1.15046       2.84284       4.84787       0.31474       0.65066      14.31250      12.18966      15.98991       0.70381       2.82864
     18.20996       7.08519       4.70087       3.51216       2.35705       4.49286       3.04873       0.43316       0.73786      19.31250      13.93539      18.04695       0.72531       2.83434
     22.72206      11.18246       4.72494       3.18963       2.78013       6.36765       4.46930       0.44681       0.70890      18.25000      21.36354      20.85358       0.71534       2.57239
     24.90403      12.63622       4.35954       2.81279       2.50111       5.17398       3.09430       0.44974       0.72313      19.18750      13.98592      20.53865       0.69852       2.39977
     24.16453      12.23439       4.62614       3.02398       2.76070       6.50241       4.51950       0.41327       0.72667      18.75000      25.66079      17.06443       0.72867       2.26089
     19.21320       8.65894       4.55593       3.24537       1.57891       4.34903       4.60868       0.41546       0.68498      17.06250      13.16187      12.17824       0.78224       2.48887
     13.20066       4.49873       4.64028       3.76359       1.43322       3.17861       3.25471       0.29583       0.71875      16.00000       8.55423       7.23767       0.83416       2.74777
      7.33907       1.55672       4.25903       3.90507       1.25355       2.77530       3.47087       0.38350       0.70803      17.12500       8.43912       3.51795       0.87135       3.08563
      3.38842      -1.80129       4.25833       4.37792       1.10829       2.11352       3.13253       0.46875       0.70395      19.00000       6.38718       2.58648       0.86340       3.45026
ID12                           49.61578      14.96995      610.36267       16 
  tmp_max_ave   tmp_min_ave    tmp_max_sd    tmp_min_sd       pcp_ave        pcp_sd      pcp_skew       wet_dry       wet_wet      pcp_days       pcp_hhr       slr_ave       dew_ave       wnd_ave
      1.65355      -3.82049       4.66670       5.34224       1.38448       2.55093       2.99268       0.40449       0.77044      19.87500       6.78343       3.29353       0.86273       3.65479
      3.42104      -3.42662       5.38669       5.17752       1.04065       2.17207       3.15305       0.36000       0.71429      15.75000       5.17752       6.04513       0.81657       3.41548
      8.19693      -0.59880       5.21754       3.81437       1.24360       2.56024       3.15254       0.34579       0.73404      17.62500       6.44303      10.16344       0.76492       3.44079
     14.61254       3.08701       5.42837       3.46714       1.14970       2.75353       4.30778       0.31474       0.65066      14.31250      11.03851      15.98991       0.70118       2.95322
     18.11081       7.12953       4.68525       3.48698       2.37299       4.47322       2.92062       0.43316       0.73786      19.31250      11.60991      18.04695       0.72601       2.93993
     22.64177      11.18038       4.72044       3.17037       2.72232       6.30832       4.73105       0.44681       0.70890      18.25000      22.58916      20.85358       0.71685       2.69180
     24.91248      12.65036       4.36516       2.80352       2.50795       5.10628       3.09715       0.44974       0.72313      19.18750      14.69674      20.53865       0.69635       2.55687
     24.16561      12.30287       4.68190       3.00710       2.68643       6.26191       4.67919       0.41327       0.72667      18.75000      26.51257      17.06443       0.72202       2.42063
     19.17346       8.76116       4.58731       3.25868       1.57774       4.33483       4.52438       0.41546       0.68498      17.06250      13.27395      12.17824       0.77868       2.62265
     13.16524       4.53936       4.66797       3.77380       1.39248       3.09962       3.21382       0.29583       0.71875      16.00000       8.06338       7.23767       0.83474       2.86307
      7.28584       1.57385       4.28902       3.88867       1.18789       2.65047       3.54286       0.38350       0.70803      17.12500       8.06832       3.51795       0.87368       3.21916
      3.35924      -1.75178       4.27088       4.36769       1.05757       2.04934       3.34090       0.46875       0.70395      19.00000       6.64362       2.58648       0.86533       3.61107
ID13                           49.61809      14.99740      566.34155       16 
  tmp_max_ave   tmp_min_ave    tmp_max_sd    tmp_min_sd       pcp_ave        pcp_sd      pcp_skew       wet_dry       wet_wet      pcp_days       pcp_hhr       slr_ave       dew_ave       wnd_ave
      1.61238      -3.83596       4.66736       5.31739       1.42331       2.61163       2.96602       0.40449       0.77044      19.87500       6.85182       3.29353       0.86367       3.70622
      3.36227      -3.42798       5.37831       5.16021       1.06992       2.22140       3.14357       0.36000       0.71429      15.75000       5.56694       6.04513       0.81758       3.47841
      8.12369      -0.58722       5.22008       3.80096       1.27289       2.62204       3.16852       0.34579       0.73404      17.62500       6.62235      10.16344       0.76542       3.49176
     14.54105       3.12344       5.43514       3.46522       1.17269       2.82301       4.32158       0.31474       0.65066      14.31250      11.20834      15.98991       0.70034       3.00017
     18.04081       7.15524       4.68964       3.48131       2.38267       4.51384       2.93862       0.43316       0.73786      19.31250      12.56882      18.04695       0.72468       2.99052
     22.56680      11.19678       4.70997       3.16470       2.76294       6.38621       4.53922       0.44681       0.70890      18.25000      21.57705      20.85358       0.71540       2.74647
     24.80854      12.65735       4.34230       2.79413       2.50695       5.14895       3.12847       0.44974       0.72313      19.18750      14.40534      20.53865       0.69574       2.60879
     24.06516      12.30666       4.65240       2.99867       2.74936       6.46538       4.73829       0.41327       0.72667      18.75000      27.62877      17.06443       0.72234       2.46454
     19.08680       8.76833       4.57319       3.24149       1.60416       4.42704       4.61376       0.41546       0.68498      17.06250      14.18803      12.17824       0.77857       2.67977
     13.10059       4.55378       4.66498       3.76293       1.41869       3.15828       3.21769       0.29583       0.71875      16.00000       8.27233       7.23767       0.83429       2.92266
      7.23278       1.56757       4.28940       3.88746       1.22524       2.72149       3.52673       0.38350       0.70803      17.12500       8.39466       3.51795       0.87404       3.27780
      3.31321      -1.77041       4.27295       4.35687       1.08539       2.08357       3.26907       0.46875       0.70395      19.00000       6.61893       2.58648       0.86606       3.66718
ID14                           49.62040      15.02485      551.23541       16 
  tmp_max_ave   tmp_min_ave    tmp_max_sd    tmp_min_sd       pcp_ave        pcp_sd      pcp_skew       wet_dry       wet_wet      pcp_days       pcp_hhr       slr_ave       dew_ave       wnd_ave
      1.57385      -3.84787       4.66883       5.29663       1.45464       2.66153       2.94158       0.40449       0.77044      19.87500       6.91640       3.29353       0.86454       3.75522
      3.30783      -3.42614       5.37249       5.14699       1.09180       2.25832       3.13801       0.36000       0.71429      15.75000       5.82300       6.04513       0.81849       3.53696
      8.05675      -0.57320       5.22365       3.79170       1.29541       2.67014       3.17820       0.34579       0.73404      17.62500       6.78571      10.16344       0.76582       3.54112
     14.47562       3.15974       5.44163       3.46547       1.19267       2.88963       4.32601       0.31474       0.65066      14.31250      11.31015      15.98991       0.69946       3.04413
     17.97568       7.17958       4.69375       3.47705       2.38995       4.57082       3.00521       0.43316       0.73786      19.31250      13.47986      18.04695       0.72346       3.03736
     22.49798      11.21191       4.70088       3.16073       2.79769       6.47543       4.39821       0.44681       0.70890      18.25000      21.46118      20.85358       0.71408       2.79758
     24.71676      12.66470       4.32369       2.78732       2.51015       5.21556       3.16576       0.44974       0.72313      19.18750      14.13750      20.53865       0.69508       2.65818
     23.97610      12.31287       4.62855       2.99296       2.80006       6.63884       4.77805       0.41327       0.72667      18.75000      28.53905      17.06443       0.72235       2.50682
     19.00835       8.77819       4.56243       3.22929       1.62660       4.52095       4.70512       0.41546       0.68498      17.06250      14.90114      12.17824       0.77829       2.73299
     13.04119       4.56812       4.66428       3.75702       1.43976       3.21090       3.22489       0.29583       0.71875      16.00000       8.44937       7.23767       0.83390       2.97722
      7.18318       1.56244       4.29197       3.88790       1.25426       2.77982       3.52824       0.38350       0.70803      17.12500       8.69062       3.51795       0.87439       3.33175
      3.27045      -1.78566       4.27571       4.34890       1.10676       2.11301       3.22623       0.46875       0.70395      19.00000       6.61399       2.58648       0.86676       3.72014
ID15                           49.62271      15.05230      480.96097       16 
  tmp_max_ave   tmp_min_ave    tmp_max_sd    tmp_min_sd       pcp_ave        pcp_sd      pcp_skew       wet_dry       wet_wet      pcp_days       pcp_hhr       slr_ave       dew_ave       wnd_ave
      1.54936      -3.85577       4.67043       5.28483       1.47424       2.69358       2.92536       0.40449       0.77044      19.87500       6.95971       3.29353       0.86510       3.78463
      3.27346      -3.42539       5.36912       5.13956       1.10494       2.28065       3.13513       0.36000       0.71429      15.75000       5.96699       6.04513       0.81905       3.57232
      8.01473      -0.56469       5.22590       3.78719       1.30928       2.70053       3.18450       0.34579       0.73404      17.62500       6.89589      10.16344       0.76605       3.57084
     14.43466       3.18199       5.44626       3.46645       1.20539       2.93686       4.33812       0.31474       0.65066      14.31250      11.37208      15.98991       0.69890       3.07074
     17.93497       7.19492       4.69670       3.47510       2.39412       4.61817       3.06830       0.43316       0.73786      19.31250      14.09495      18.04695       0.72267       3.06599
     22.45492      11.22180       4.69528       3.15899       2.82053       6.54244       4.31562       0.44681       0.70890      18.25000      21.58313      20.85358       0.71323       2.82889
     24.65888      12.66965       4.31267       2.78383       2.51370       5.27096       3.19429       0.44974       0.72313      19.18750      13.95438      20.53865       0.69462       2.68808
     23.91989      12.31692       4.61360       2.99045       2.83198       6.75264       4.79510       0.41327       0.72667      18.75000      29.07207      17.06443       0.72232       2.53219
     18.95874       8.78424       4.55593       3.22264       1.64084       4.58877       4.76940       0.41546       0.68498      17.06250      15.31563      12.17824       0.77809       2.76537
     13.00334       4.57717       4.66422       3.75477       1.45322       3.24662       3.23133       0.29583       0.71875      16.00000       8.56753       7.23767       0.83362       3.01037
      7.15162       1.55914       4.29419       3.88908       1.27243       2.81758       3.53390       0.38350       0.70803      17.12500       8.89008       3.51795       0.87462       3.36430
      3.24309      -1.79562       4.27766       4.34471       1.12006       2.13283       3.20312       0.46875       0.70395      19.00000       6.61247       2.58648       0.86718       3.75211
ID16                           49.62501      15.07976      483.78128       16 
  tmp_max_ave   tmp_min_ave    tmp_max_sd    tmp_min_sd       pcp_ave        pcp_sd      pcp_skew       wet_dry       wet_wet      pcp_days       pcp_hhr       slr_ave       dew_ave       wnd_ave
      1.54906      -3.86230       4.67157       5.28612       1.47984       2.70297       2.91839       0.40449       0.77044      19.87500       6.95896       3.29353       0.86488       3.77504
      3.27303      -3.43326       5.36635       5.13838       1.10897       2.28750       3.13713       0.36000       0.71429      15.75000       6.02778       6.04513       0.81893       3.56457
      8.01383      -0.57280       5.22356       3.78643       1.31372       2.71201       3.19238       0.34579       0.73404      17.62500       6.92894      10.16344       0.76601       3.56042
     14.43462       3.17422       5.44854       3.46635       1.20705       2.95083       4.37676       0.31474       0.65066      14.31250      11.46516      15.98991       0.69900       3.06448
     17.93690       7.19368       4.69825       3.47637       2.39271       4.63046       3.10196       0.43316       0.73786      19.31250      14.38863      18.04695       0.72251       3.06152
     22.45504      11.22350       4.69473       3.16009       2.82823       6.55762       4.29105       0.44681       0.70890      18.25000      21.61771      20.85358       0.71299       2.82381
     24.65005      12.66939       4.31084       2.78376       2.51491       5.28758       3.19742       0.44974       0.72313      19.18750      13.86206      20.53865       0.69470       2.67978
     23.91180      12.31232       4.60715       2.99113       2.84106       6.78204       4.77360       0.41327       0.72667      18.75000      29.04434      17.06443       0.72282       2.52303
     18.95472       8.77720       4.55260       3.22031       1.64246       4.60140       4.78231       0.41546       0.68498      17.06250      15.33006      12.17824       0.77833       2.75921
     13.00052       4.57535       4.66218       3.75377       1.45778       3.25771       3.23660       0.29583       0.71875      16.00000       8.62338       7.23767       0.83354       3.00571
      7.15110       1.55732       4.29223       3.89014       1.27925       2.83147       3.53246       0.38350       0.70803      17.12500       8.95048       3.51795       0.87444       3.35807
      3.24128      -1.80094       4.27672       4.34466       1.12519       2.14004       3.18760       0.46875       0.70395      19.00000       6.59537       2.58648       0.86707       3.74372
ID17                           49.62730      15.10722      519.03174       16 
  tmp_max_ave   tmp_min_ave    tmp_max_sd    tmp_min_sd       pcp_ave        pcp_sd      pcp_skew       wet_dry       wet_wet      pcp_days       pcp_hhr       slr_ave       dew_ave       wnd_ave
      1.57371      -3.87001       4.67246       5.30120       1.47326       2.69281       2.91916       0.40449       0.77044      19.87500       6.90995       3.29353       0.86382       3.72223
      3.30745      -3.45320       5.36296       5.14299       1.10556       2.28163       3.14502       0.36000       0.71429      15.75000       6.03689       6.04513       0.81817       3.51027
      8.05467      -0.60121       5.21559       3.78924       1.31042       2.70899       3.20637       0.34579       0.73404      17.62500       6.89133      10.16344       0.76575       3.50498
     14.47644       3.13248       5.44915       3.46535       1.19781       2.93378       4.45690       0.31474       0.65066      14.31250      11.63005      15.98991       0.69987       3.02253
     17.98337       7.17488       4.69904       3.48163       2.38507       4.60603       3.11054       0.43316       0.73786      19.31250      14.45473      18.04695       0.72288       3.02184
     22.49959      11.21729       4.69915       3.16444       2.82304       6.52201       4.31254       0.44681       0.70890      18.25000      21.58313      20.85358       0.71327       2.77972
     24.68775      12.66349       4.31748       2.78719       2.51342       5.26625       3.17302       0.44974       0.72313      19.18750      13.83167      20.53865       0.69540       2.62941
     23.94978      12.29672       4.60684       2.99533       2.83038       6.73528       4.70999       0.41327       0.72667      18.75000      28.44635      17.06443       0.72410       2.47525
     18.99586       8.75378       4.55106       3.22145       1.63170       4.55753       4.74692       0.41546       0.68498      17.06250      14.95623      12.17824       0.77910       2.71157
     13.03279       4.56154       4.65708       3.75322       1.45501       3.24676       3.24210       0.29583       0.71875      16.00000       8.63553       7.23767       0.83360       2.96104
      7.18248       1.55629       4.28498       3.89168       1.27727       2.82607       3.52090       0.38350       0.70803      17.12500       8.88590       3.51795       0.87387       3.31024
      3.26522      -1.80365       4.27259       4.34879       1.12394       2.13683       3.17211       0.46875       0.70395      19.00000       6.55434       2.58648       0.86643       3.69119
ID18                           49.60487      15.05584      489.61972       16 
  tmp_max_ave   tmp_min_ave    tmp_max_sd    tmp_min_sd       pcp_ave        pcp_sd      pcp_skew       wet_dry       wet_wet      pcp_days       pcp_hhr       slr_ave       dew_ave       wnd_ave
      1.44426      -3.84670       4.67424       5.23255       1.51872       2.77008       2.90695       0.40449       0.77044      19.87500       7.15537       3.29353       0.86877       3.97176
      3.12694      -3.36936       5.37599       5.12350       1.13073       2.32730       3.10605       0.36000       0.71429      15.75000       6.09388       6.04513       0.82195       3.77225
      7.83982      -0.47359       5.25299       3.78317       1.33603       2.75388       3.16863       0.34579       0.73404      17.62500       7.16183      10.16344       0.76702       3.76619
     14.25891       3.32987       5.45406       3.48116       1.24854       3.06767       4.20910       0.31474       0.65066      14.31250      10.96519      15.98991       0.69557       3.22416
     17.74641       7.26972       4.70111       3.46428       2.41963       4.78303       3.16663       0.43316       0.73786      19.31250      14.83237      18.04695       0.72036       3.21633
     22.26841      11.25435       4.67646       3.15004       2.86815       6.78093       4.15747       0.44681       0.70890      18.25000      21.81374      20.85358       0.71108       2.99580
     24.46918      12.69417       4.28104       2.77577       2.52662       5.45680       3.31149       0.44974       0.72313      19.18750      14.75145      20.53865       0.69186       2.86975
     23.73191      12.36690       4.59403       2.98279       2.90407       7.06424       5.00800       0.41327       0.72667      18.75000      31.37893      17.06443       0.71876       2.69993
     18.77133       8.85831       4.55268       3.21865       1.69026       4.83152       4.99590       0.41546       0.68498      17.06250      16.84442      12.17824       0.77549       2.94303
     12.85714       4.62906       4.68081       3.76155       1.47873       3.33227       3.22876       0.29583       0.71875      16.00000       8.69936       7.23767       0.83300       3.18067
      7.01725       1.55699       4.32083       3.89400       1.30197       2.88817       3.58567       0.38350       0.70803      17.12500       9.36080       3.51795       0.87656       3.54199
      3.13525      -1.80322       4.29501       4.33385       1.14071       2.17421       3.22823       0.46875       0.70395      19.00000       6.73062       2.58648       0.86958       3.94238
ID19                           49.60717      15.08329      523.28601       16 
  tmp_max_ave   tmp_min_ave    tmp_max_sd    tmp_min_sd       pcp_ave        pcp_sd      pcp_skew       wet_dry       wet_wet      pcp_days       pcp_hhr       slr_ave       dew_ave       wnd_ave
      1.43912      -3.84886       4.67503       5.23100       1.52419       2.77972       2.90337       0.40449       0.77044      19.87500       7.17057       3.29353       0.86883       3.97630
      3.11990      -3.36981       5.37530       5.12257       1.13445       2.33424       3.10660       0.36000       0.71429      15.75000       6.13567       6.04513       0.82203       3.77799
      7.83145      -0.47244       5.25324       3.78313       1.34008       2.76338       3.17144       0.34579       0.73404      17.62500       7.19450      10.16344       0.76706       3.77089
     14.25087       3.33366       5.45542       3.48192       1.25199       3.08397       4.22678       0.31474       0.65066      14.31250      10.98532      15.98991       0.69547       3.22852
     17.73846       7.27273       4.70196       3.46438       2.42130       4.80167       3.18407       0.43316       0.73786      19.31250      14.99650      18.04695       0.72018       3.22130
     22.25993      11.25665       4.67530       3.15024       2.87471       6.80459       4.13917       0.44681       0.70890      18.25000      21.84680      20.85358       0.71087       3.00133
     24.45715      12.69538       4.27906       2.77557       2.52766       5.47800       3.32389       0.44974       0.72313      19.18750      14.88974      20.53865       0.69175       2.87462
     23.72020      12.36766       4.59065       2.98299       2.91315       7.10085       5.00941       0.41327       0.72667      18.75000      31.50279      17.06443       0.71878       2.70382
     18.76108       8.85914       4.55132       3.21781       1.69434       4.85524       5.01852       0.41546       0.68498      17.06250      16.94548      12.17824       0.77544       2.94852
     12.84911       4.63082       4.68091       3.76181       1.48281       3.34385       3.23086       0.29583       0.71875      16.00000       8.73393       7.23767       0.83292       3.18632
      7.01066       1.55618       4.32148       3.89468       1.30723       2.89948       3.58783       0.38350       0.70803      17.12500       9.41968       3.51795       0.87654       3.54730
      3.12933      -1.80569       4.29542       4.33352       1.14470       2.18067       3.22127       0.46875       0.70395      19.00000       6.72797       2.58648       0.86965       3.94756
ID2                            49.65144      14.96280      528.05042       16 
  tmp_max_ave   tmp_min_ave    tmp_max_sd    tmp_min_sd       pcp_ave        pcp_sd      pcp_skew       wet_dry       wet_wet      pcp_days       pcp_hhr       slr_ave       dew_ave       wnd_ave
      1.79268      -3.80642       4.67760       5.46019       1.34255       2.51235       3.08958       0.40449       0.77044      19.87500       6.81421       3.29353       0.85751       3.38360
      3.62635      -3.46868       5.39905       5.25456       1.02429       2.16973       3.24231       0.36000       0.71429      15.75000       5.52515       6.04513       0.81185       3.10949
      8.46017      -0.68619       5.18893       3.88688       1.23102       2.55996       3.24750       0.34579       0.73404      17.62500       6.75912      10.16344       0.76207       3.17142