weather-wgn.cli: written by SWATprepR R package on 2024-03-18 08:29:28 for SWAT+ rev.60.5.4
ID1                            49.61690      15.07804      462.50000       16 
  tmp_max_ave   tmp_min_ave    tmp_max_sd    tmp_min_sd       pcp_ave        pcp_sd      pcp_skew       wet_dry       wet_wet      pcp_days       pcp_hhr       slr_ave       dew_ave       wnd_ave
      2.57388      -3.25278       4.13431       4.45666       1.32601       3.20336       5.58465       0.36444       0.69373      16.93750      15.00675       3.29353       0.87043       2.82715
      5.33655      -2.38199       5.05825       4.67483       1.08053       2.24717       3.47904       0.37603       0.56667      13.12500       7.90229       6.04513       0.81552       2.69430
      9.08250      -0.03327       5.19400       3.61578       1.28710       3.00578       4.73054       0.36522       0.68421      16.62500      10.67569      10.16344       0.76573       2.65229
     14.65514       2.85517       5.81439       3.73442       1.13333       2.84457       3.95760       0.30769       0.63182      13.75000       8.51016      15.98991       0.70617       2.18324
     18.20391       6.36319       5.02408       3.71818       2.36290       5.34570       4.16913       0.43716       0.74441      19.56250      17.74216      18.04695       0.75149       1.87715
     24.20624      10.30775       4.64554       3.04601       2.73125       6.83597       4.43882       0.39269       0.66667      16.31250      24.61868      20.85358       0.73380       1.39989
     26.31377      11.97214       4.48553       3.15223       2.31823       5.74548       3.78988       0.41364       0.66667      17.25000      17.17229      20.53865       0.70335       1.43959
     25.11949      12.75992       5.13671       3.21934       2.67569       6.92196       5.21753       0.42995       0.68858      18.06250      28.07593      17.06443       0.71688       1.55404
     19.54962       9.79896       4.86125       3.41798       1.69408       4.81493       5.05835       0.36190       0.71481      16.87500      15.88057      12.17824       0.78390       1.64650
     13.89573       5.91048       4.54054       3.73999       1.49395       3.29912       3.37523       0.43750       0.75625      20.00000       9.27000       7.23767       0.85549       2.06788
      7.51757       1.88071       4.47874       3.86758       1.27667       2.81962       3.41816       0.31915       0.68980      15.31250       8.62414       3.51795       0.88637       2.30879
      4.33677      -0.76375       3.91733       3.84468       1.10040       2.19856       3.21599       0.36214       0.65217      15.81250       6.80053       2.58648       0.87355       2.80474
