wnd.cli: Wind speed file names - file written by SWATprepR R package 2024-08-29 12:40:33
filename
sta_id1.wnd
sta_id10.wnd
sta_id11.wnd
sta_id12.wnd
sta_id13.wnd
sta_id14.wnd
sta_id15.wnd
sta_id16.wnd
sta_id17.wnd
sta_id18.wnd
sta_id19.wnd
sta_id2.wnd
sta_id3.wnd
sta_id4.wnd
sta_id5.wnd
sta_id6.wnd
sta_id7.wnd
sta_id8.wnd
sta_id9.wnd
