aquifer.con: written by SWAT+ editor v2.1.0 on 2024-03-26 18:09 for SWAT+ rev.60.5.4
      id  name                gis_id          area           lat           lon          elev       aqu               wst       cst      ovfl      rule   out_tot  
       1  aqu1                     0   10053.93504      46.83156       6.88785     535.53971         1       s46817n695e         0         0         0         0  
