chandeg.con: written by SWAT+ editor v2.1.0 on 2024-03-26 18:09 for SWAT+ rev.60.5.4
      id  name                gis_id          area           lat           lon          elev      lcha               wst       cst      ovfl      rule   out_tot       obj_typ    obj_id       hyd_typ          frac  
       1  cha001                   0      28.03460      46.88749       6.96087     472.46118         1       s46817n695e         0         0         0         1           sdc        12           tot       1.00000  
       2  cha002                   0       3.31350      46.90563       6.98437     477.03407         2       s46817n695e         0         0         0         1           sdc       146           tot       1.00000  
       3  cha003                   0       7.30990      46.88711       6.93908     473.39160         3       s46817n695e         0         0         0         1           sdc       195           tot       1.00000  
       4  cha004                   0      16.27890      46.79396       6.84953     632.97387         4       s46817n695e         0         0         0         1           sdc       163           tot       1.00000  
       5  cha005                   0      35.33239      46.79842       6.85610     598.67779         5       s46817n695e         0         0         0         1           sdc       232           tot       1.00000  
       6  cha006                   0     979.06160      46.81299       6.87493     478.82999         6       s46817n695e         0         0         0         1           sdc        54           tot       1.00000  
       7  cha007                   0      44.39870      46.80180       6.86408     553.33133         7       s46817n695e         0         0         0         1           sdc       234           tot       1.00000  
       8  cha008                   0       2.21480      46.80506       6.86960     519.24462         8       s46817n695e         0         0         0         1           sdc       240           tot       1.00000  
       9  cha009                   0      27.36430      46.79635       6.85279     613.85327         9       s46817n695e         0         0         0         1           sdc       164           tot       1.00000  
      10  cha010                   0      67.11700      46.80974       6.87255     492.99319        10       s46817n695e         0         0         0         1           sdc       237           tot       1.00000  
      11  cha011                   0      23.05290      46.88802       6.95822     471.22906        11       s46817n695e         0         0         0         1           sdc        12           tot       1.00000  
      12  cha012                   0      29.21370      46.88625       6.96079     459.69780        12       s46817n695e         0         0         0         1           sdc        13           tot       1.00000  
      13  cha013                   0      36.44130      46.88448       6.96161     453.05562        13       s46817n695e         0         0         0         1           sdc        14           tot       1.00000  
      14  cha014                   0      37.71700      46.88283       6.96280     448.24187        14       s46817n695e         0         0         0         1           sdc        15           tot       1.00000  
      15  cha015                   0      51.75170      46.88046       6.96521     443.60286        15       s46817n695e         0         0         0         1           sdc        16           tot       1.00000  
      16  cha016                   0      51.78400      46.87670       6.96939     439.57584        16       s46817n695e         0         0         0         1           sdc        31           tot       1.00000  
      17  cha017                   0       7.00740      46.90322       6.97659     487.00055        17       s46817n695e         0         0         0         1           sdc        18           tot       1.00000  
      18  cha018                   0      13.14590      46.90271       6.98255     459.29588        18       s46817n695e         0         0         0         1           sdc        20           tot       1.00000  
      19  cha019                   0      51.27540      46.90157       6.98989     441.68273        19       s46817n695e         0         0         0         1           sdc        22           tot       1.00000  
      20  cha020                   0      27.51540      46.90230       6.98668     445.49629        20       s46817n695e         0         0         0         1           sdc       280           tot       1.00000  
      21  cha021                   0      54.24160      46.89916       6.99443     435.24896        21       s46817n695e         0         0         0         1           sdc       201           tot       1.00000  
      22  cha022                   0      54.00680      46.90085       6.99212     440.56708        22       s46817n695e         0         0         0         1           sdc        21           tot       1.00000  
      23  cha023                   0       6.87740      46.89360       6.98350     467.55807        23       s46817n695e         0         0         0         1           sdc       203           tot       1.00000  
      24  cha024                   0      16.26630      46.89296       6.99065     435.32455        24       s46817n695e         0         0         0         1           sdc        39           tot       1.00000  
      25  cha025                   0      37.93840      46.79951       6.86120     584.17581        25       s46817n695e         0         0         0         1           sdc       233           tot       1.00000  
      26  cha026                   0      29.21370      46.88541       6.96183     464.82018        26       s46817n695e         0         0         0         1           sdc        13           tot       1.00000  
      27  cha027                   0    2160.75560      46.90267       7.00224     431.87841        27       s46817n695e         0         0         0         1           sdc        30           tot       1.00000  
      28  cha028                   0    2378.83480      46.91382       7.02425     429.85324        28       s46817n695e         0         0         0         1           sdc       288           tot       1.00000  
      29  cha029                   0    2378.02560      46.91168       7.02076     429.98050        29       s46817n695e         0         0         0         1           sdc        28           tot       1.00000  
      30  cha030                   0    2228.33640      46.90867       7.01297     430.46514        30       s46817n695e         0         0         0         1           sdc        29           tot       1.00000  
      31  cha031                   0    1988.71820      46.87828       6.97921     435.60369        31       s46817n695e         0         0         0         1           sdc        35           tot       1.00000  
      32  cha032                   0    1951.00752      46.87395       6.96718     436.66996        32       s46817n695e         0         0         0         1           sdc        31           tot       1.00000  
      33  cha033                   0    1612.55960      46.87321       6.96217     437.34964        33       s46817n695e         0         0         0         1           sdc        32           tot       1.00000  
      34  cha034                   0    1525.67370      46.86631       6.94689     438.80485        34       s46817n695e         0         0         0         1           sdc        33           tot       1.00000  
      35  cha035                   0    2005.28160      46.88404       6.98601     434.62274        35       s46817n695e         0         0         0         1           sdc        38           tot       1.00000  
      36  cha036                   0    1421.14570      46.85430       6.92850     440.97234        36       s46817n695e         0         0         0         1           sdc        34           tot       1.00000  
      37  cha037                   0    1322.30680      46.84693       6.91748     442.18263        37       s46817n695e         0         0         0         1           sdc        36           tot       1.00000  
      38  cha038                   0    2021.14920      46.88868       6.98948     434.00381        38       s46817n695e         0         0         0         1           sdc        39           tot       1.00000  
      39  cha039                   0    2046.32640      46.89526       6.99442     433.25083        39       s46817n695e         0         0         0         1           sdc        27           tot       1.00000  
      40  cha040                   0     276.50140      46.77783       6.81867     575.39172        40       s46817n695e         0         0         0         1           sdc        43           tot       1.00000  
      41  cha041                   0     256.41701      46.77708       6.81842     578.44229        41       s46817n695e         0         0         0         1           sdc        40           tot       1.00000  
      42  cha042                   0     198.67985      46.76965       6.80602     607.90536        42       s46817n695e         0         0         0         1           sdc        41           tot       1.00000  
      43  cha043                   0     300.46210      46.77943       6.81970     571.84024        43       s46817n695e         0         0         0         1           sdc       166           tot       1.00000  
      44  cha044                   0     102.50301      46.74596       6.78447     673.07117        44       s46817n695e         0         0         0         2           sdc        46           tot       0.50000           sdc       137           tot       0.50000  
      45  cha045                   0     109.15810      46.75034       6.78737     662.79367        45       s46817n695e         0         0         0         2           sdc       299           tot       0.50000           sdc       301           tot       0.50000  
      46  cha046                   0     106.12880      46.74739       6.78602     669.46054        46       s46817n695e         0         0         0         1           sdc        45           tot       1.00000  
      47  cha047                   0     370.70640      46.78457       6.82185     560.07883        47       s46817n695e         0         0         0         1           sdc        59           tot       1.00000  
      48  cha048                   0     543.67280      46.81254       6.85087     491.81970        48       s46817n695e         0         0         0         1           sdc       259           tot       1.00000  
      49  cha049                   0     557.24390      46.81454       6.85730     484.79105        49       s46817n695e         0         0         0         1           sdc        55           tot       1.00000  
      50  cha050                   0     490.81282      46.80839       6.84301     504.97296        50       s46817n695e         0         0         0         1           sdc        48           tot       1.00000  
      51  cha051                   0     450.97560      46.80329       6.83810     516.35992        51       s46817n695e         0         0         0         1           sdc        50           tot       1.00000  
      52  cha052                   0     446.83040      46.80148       6.83560     520.85168        52       s46817n695e         0         0         0         1           sdc        51           tot       1.00000  
      53  cha053                   0    1020.36110      46.83287       6.89492     445.25343        53       s46817n695e         0         0         0         1           sdc        60           tot       1.00000  
      54  cha054                   0    1006.89660      46.82202       6.88479     457.29914        54       s46817n695e         0         0         0         1           sdc        53           tot       1.00000  
      55  cha055                   0     845.61480      46.81435       6.86307     482.07156        55       s46817n695e         0         0         0         1           sdc       257           tot       1.00000  
      56  cha056                   0     393.66980      46.79044       6.82405     546.80221        56       s46817n695e         0         0         0         1           sdc        57           tot       1.00000  
      57  cha057                   0     394.25440      46.79108       6.82498     545.26614        57       s46817n695e         0         0         0         1           sdc        58           tot       1.00000  
      58  cha058                   0     434.99540      46.79589       6.82908     534.39966        58       s46817n695e         0         0         0         1           sdc        52           tot       1.00000  
      59  cha059                   0     392.90720      46.78882       6.82371     550.68197        59       s46817n695e         0         0         0         2           sdc        56           tot       0.50000           sdc        67           tot       0.50000  
      60  cha060                   0    1283.43170      46.83863       6.90483     443.75176        60       s46817n695e         0         0         0         1           sdc        37           tot       1.00000  
      61  cha061                   0       1.60040      46.80658       6.82172     574.99834        61       s46817n695e         0         0         0         1           sdc       261           tot       1.00000  
      62  cha062                   0      26.63406      46.80782       6.82217     563.15050        62       s46817n695e         0         0         0         1           sdc       205           tot       1.00000  
      63  cha063                   0       8.83520      46.84232       6.89102     475.83291        63       s46817n695e         0         0         0         1           sdc       243           tot       1.00000  
      64  cha064                   0      46.89140      46.88257       6.96203     450.20117        64       s46817n695e         0         0         0         1           sdc        15           tot       1.00000  
      65  cha065                   0       2.86610      46.87807       6.96002     448.17512        65       s46817n695e         0         0         0         1           sdc        66           tot       1.00000  
      66  cha066                   0       2.36620      46.87523       6.96217     440.64856        66       s46817n695e         0         0         0         1           sdc        32           tot       1.00000  
      67  cha067                   0     393.51160      46.79057       6.82393     547.36798        67       s46817n695e         0         0         0         1           sdc        57           tot       1.00000  
      68  cha068                   0     259.23660      46.82115       6.83668     528.12035        68       s46817n695e         0         0         0         1           sdc       211           tot       1.00000  
      69  cha069                   0       1.77320      46.82470       6.83467     540.70651        69       s46817n695e         0         0         0         1           sdc       215           tot       1.00000  
      70  cha070                   0      13.46306      46.78201       6.82826     606.25366        70       s46817n695e         0         0         0         1           sdc       125           tot       1.00000  
      71  cha071                   0      41.61360      46.77368       6.81875     596.31912        71       s46817n695e         0         0         0         1           sdc        41           tot       1.00000  
      72  cha072                   0       8.99560      46.81296       6.85609     499.40234        72       s46817n695e         0         0         0         1           sdc        49           tot       1.00000  
      73  cha073                   0      10.69170      46.90218       6.97699     485.40205        73       s46817n695e         0         0         0         1           sdc        18           tot       1.00000  
      74  cha074                   0      28.04570      46.80421       6.85157     555.68648        74       s46817n695e         0         0         0         1           sdc       228           tot       1.00000  
      75  cha075                   0      19.33380      46.77553       6.82231     613.73160        75       s46817n695e         0         0         0         1           sdc        40           tot       1.00000  
      76  cha076                   0      37.15170      46.88410       6.96298     461.39297        76       s46817n695e         0         0         0         1           sdc        14           tot       1.00000  
      77  cha077                   0      33.74580      46.78110       6.82603     599.69910        77       s46817n695e         0         0         0         1           sdc       167           tot       1.00000  
      78  cha078                   0      77.92030      46.82396       6.86488     469.88566        78       s46817n695e         0         0         0         1           sdc       162           tot       1.00000  
      79  cha079                   0      13.67240      46.78702       6.81992     575.80702        79       s46817n695e         0         0         0         1           sdc        59           tot       1.00000  
      80  cha080                   0       3.38780      46.78344       6.81350     629.03362        80       s46817n695e         0         0         0         1           sdc       265           tot       1.00000  
      81  cha081                   0     222.56462      46.81242       6.82485     549.43658        81       s46817n695e         0         0         0         1           sdc        82           tot       1.00000  
      82  cha082                   0     252.12360      46.81820       6.83135     534.65794        82       s46817n695e         0         0         0         2           sdc        68           tot       0.50000           sdc       208           tot       0.50000  
      83  cha083                   0     153.11830      46.80386       6.81494     574.82894        83       s46817n695e         0         0         0         1           sdc       192           tot       1.00000  
      84  cha084                   0      69.82540      46.79706       6.80199     597.74585        84       s46817n695e         0         0         0         1           sdc       126           tot       1.00000  
      85  cha085                   0     272.38335      46.82158       6.84660     509.95628        85       s46817n695e         0         0         0         1           sdc       207           tot       1.00000  
      86  cha086                   0       7.03840      46.80049       6.86733     572.78241        86       s46817n695e         0         0         0         1           sdc        87           tot       1.00000  
      87  cha087                   0      46.24640      46.80202       6.86763     546.18491        87       s46817n695e         0         0         0         1           sdc       241           tot       1.00000  
      88  cha088                   0       7.02080      46.84924       6.90125     483.23370        88       s46817n695e         0         0         0         1           sdc        90           tot       1.00000  
      89  cha089                   0      14.24700      46.84643       6.90712     458.67734        89       s46817n695e         0         0         0         1           sdc        91           tot       1.00000  
      90  cha090                   0       7.46810      46.84719       6.90483     469.71536        90       s46817n695e         0         0         0         1           sdc        89           tot       1.00000  
      91  cha091                   0      16.46770      46.84461       6.90994     453.50064        91       s46817n695e         0         0         0         1           sdc        37           tot       1.00000  
      92  cha092                   0      20.42174      46.92320       7.01661     505.11942        92       s46817n695e         0         0         0         1           sdc        93           tot       1.00000  
      93  cha093                   0      27.88220      46.92177       7.01277     472.48504        93       s46817n695e         0         0         0         1           sdc       107           tot       1.00000  
      94  cha094                   0     258.37240      46.87168       6.96131     439.13598        94       s46817n695e         0         0         0         1           sdc        96           tot       1.00000  
      95  cha095                   0     256.35860      46.86969       6.95563     439.57168        95       s46817n695e         0         0         0         1           sdc        94           tot       1.00000  
      96  cha096                   0      43.15330      46.87960       6.98532     435.12826        96       s46817n695e         0         0         0         1           sdc       271           tot       1.00000  
      97  cha097                   0       2.88398      46.91353       6.99540     471.61046        97       s46817n695e         0         0         0         1           sdc       143           tot       1.00000  
      98  cha098                   0      22.11160      46.90052       6.98286     465.91755        98       s46817n695e         0         0         0         1           sdc       280           tot       1.00000  
      99  cha099                   0      56.78170      46.79361       6.79618     615.82443        99       s46817n695e         0         0         0         1           sdc       184           tot       1.00000  
     100  cha100                   0      10.52170      46.88901       6.97842     461.63376       100       s46817n695e         0         0         0         1           sdc       101           tot       1.00000  
     101  cha101                   0      11.98860      46.88647       6.98375     443.10073       101       s46817n695e         0         0         0         1           sdc        38           tot       1.00000  
     102  cha102                   0       0.00001      46.73679       6.77437     698.51538       102       s46817n695e         0         0         0         1           sdc       179           tot       1.00000  
     103  cha103                   0       0.00001      46.73783       6.77610     694.02118       103       s46817n695e         0         0         0         1           res        13           tot       1.00000  
     104  cha104                   0      18.12861      46.73625       6.77331     701.07867       104       s46817n695e         0         0         0         1           res         8           tot       1.00000  
     105  cha105                   0       0.66100      46.91509       7.02167     433.87571       105       s46817n695e         0         0         0         1           sdc       106           tot       1.00000  
     106  cha106                   0       0.11010      46.91381       7.02297     433.38852       106       s46817n695e         0         0         0         1           sdc       274           tot       1.00000  
     107  cha107                   0      40.77810      46.91949       7.01526     453.10639       107       s46817n695e         0         0         0         1           sdc       273           tot       1.00000  
     108  cha108                   0      36.97320      46.91987       7.01130     479.29855       108       s46817n695e         0         0         0         1           sdc       107           tot       1.00000  
     109  cha109                   0      41.05610      46.91795       7.01862     442.26514       109       s46817n695e         0         0         0         1           sdc       275           tot       1.00000  
     110  cha110                   0      40.89150      46.91821       7.01803     443.90204       110       s46817n695e         0         0         0         1           sdc       109           tot       1.00000  
     111  cha111                   0       0.93670      46.80284       6.83932     534.93622       111       s46817n695e         0         0         0         1           sdc        50           tot       1.00000  
     112  cha112                   0       9.87320      46.88635       6.97633     460.91057       112       s46817n695e         0         0         0         1           sdc       113           tot       1.00000  
     113  cha113                   0      10.14360      46.88468       6.98185     444.63572       113       s46817n695e         0         0         0         1           sdc        35           tot       1.00000  
     114  cha114                   0       5.85650      46.88560       6.93309     478.27229       114       s46817n695e         0         0         0         1           sdc       115           tot       1.00000  
     115  cha115                   0       6.29090      46.88630       6.93661     475.33838       115       s46817n695e         0         0         0         1           sdc       118           tot       1.00000  
     116  cha116                   0      58.30835      46.87485       6.95824     442.00432       116       s46817n695e         0         0         0         1           sdc        33           tot       1.00000  
     117  cha117                   0      58.29660      46.87788       6.95055     448.49057       117       s46817n695e         0         0         0         1           sdc       116           tot       1.00000  
     118  cha118                   0      15.72121      46.88665       6.93877     471.14527       118       s46817n695e         0         0         0         1           sdc       195           tot       1.00000  
     119  cha119                   0      46.17620      46.80099       6.81023     586.70788       119       s46817n695e         0         0         0         1           sdc       188           tot       1.00000  
     120  cha120                   0      40.24120      46.79522       6.80672     617.01801       120       s46817n695e         0         0         0         1           sdc       119           tot       1.00000  
     121  cha121                   0      10.75920      46.91660       7.00037     487.56758       121       s46817n695e         0         0         0         1           sdc       128           tot       1.00000  
     122  cha122                   0      22.79920      46.77812       6.81708     584.99099       122       s46817n695e         0         0         0         1           sdc       174           tot       1.00000  
     123  cha123                   0      18.88071      46.78082       6.82853     609.74274       123       s46817n695e         0         0         0         1           sdc       125           tot       1.00000  
     124  cha124                   0     362.35570      46.78173       6.82262     575.69668       124       s46817n695e         0         0         0         1           sdc        47           tot       1.00000  
     125  cha125                   0      33.74580      46.78165       6.82663     591.64304       125       s46817n695e         0         0         0         1           sdc       167           tot       1.00000  
     126  cha126                   0      92.93310      46.79949       6.80659     588.97455       126       s46817n695e         0         0         0         1           sdc       119           tot       1.00000  
     127  cha127                   0      12.27890      46.82618       6.84117     509.34174       127       s46817n695e         0         0         0         1           sdc       213           tot       1.00000  
     128  cha128                   0      20.34320      46.91405       6.99945     462.77745       128       s46817n695e         0         0         0         1           sdc       129           tot       1.00000  
     129  cha129                   0      32.84380      46.91156       7.00193     444.52464       129       s46817n695e         0         0         0         1           sdc       131           tot       1.00000  
     130  cha130                   0       4.51470      46.91756       6.99844     492.20436       130       s46817n695e         0         0         0         1           sdc       128           tot       1.00000  
     131  cha131                   0       4.59700      46.90879       7.00612     435.89600       131       s46817n695e         0         0         0         1           sdc        30           tot       1.00000  
     132  cha132                   0      10.60920      46.84256       6.89411     473.53419       132       s46817n695e         0         0         0         1           sdc       133           tot       1.00000  
     133  cha133                   0      24.32460      46.83943       6.89319     456.96164       133       s46817n695e         0         0         0         1           sdc       134           tot       1.00000  
     134  cha134                   0     238.43050      46.83654       6.89510     449.95804       134       s46817n695e         0         0         0         1           sdc        60           tot       1.00000  
     135  cha135                   0       4.38950      46.84627       6.90169     477.97845       135       s46817n695e         0         0         0         1           sdc       136           tot       1.00000  
     136  cha136                   0      13.26985      46.84654       6.90487     466.74710       136       s46817n695e         0         0         0         1           sdc        89           tot       1.00000  
     137  cha137                   0     107.87840      46.74725       6.78641     670.23251       137       s46817n695e         0         0         0         1           sdc        45           tot       1.00000  