exco.exc: written by SWAT+ editor v2.1.0 on 2024-03-26 18:09 for SWAT+ rev.60.5.4
name                            om              pest              path              hmet              salt  
GRANDCOUR                GRANDCOUR              null              null              null              null  
BUSSY                        BUSSY              null              null              null              null  
