hru-data.hru: written by SWAT+ editor v2.1.0 on 2023-10-24 11:54 for SWAT+ rev.60.5.4, edited manually on 2023-12-04 11:00:45 and edited with SWATfarmR 2.0.5 on 2024-03-25 11:40:01
      id  name                          topo             hydro              soil            lu_mgt   soil_plant_init         surf_stor              snow             field
       1  hru0001                topohru0001           hyd0001             soil1    crop_1_lum_1_1     soilplant0001              null           snow001              null
       2  hru0002                topohru0002           hyd0002             soil2    crop_2_lum_2_1     soilplant0002              null           snow001              null
       3  hru0003                topohru0003           hyd0003             soil3    crop_3_lum_3_1     soilplant0003              null           snow001              null
       4  hru0004                topohru0004           hyd0004             soil7    crop_4_lum_4_1     soilplant0004              null           snow001              null
       5  hru0005                topohru0005           hyd0005             soil9    crop_5_lum_5_1     soilplant0005              null           snow001              null
       6  hru0006                topohru0006           hyd0006            soil10    crop_6_lum_6_1     soilplant0006              null           snow001              null
       7  hru0007                topohru0007           hyd0007            soil12    crop_7_lum_7_1     soilplant0007              null           snow001              null
       8  hru0008                topohru0008           hyd0008            soil13 crop_8_drn_lum_8_1     soilplant0008              null           snow001              null
       9  hru0009                topohru0009           hyd0009            soil15    crop_9_lum_9_1     soilplant0009              null           snow001              null
      10  hru0010                topohru0010           hyd0010            soil16  crop_10_lum_10_1     soilplant0010              null           snow001              null
      11  hru0011                topohru0011           hyd0011            soil18  crop_11_lum_11_1     soilplant0011              null           snow001              null
      12  hru0012                topohru0012           hyd0012            soil20 crop_12_drn_lum_12_1     soilplant0012              null           snow001              null
      13  hru0013                topohru0013           hyd0013            soil21  crop_14_lum_13_1     soilplant0013              null           snow001              null
      14  hru0014                topohru0014           hyd0014            soil22  crop_15_lum_14_1     soilplant0014              null           snow001              null
      15  hru0015                topohru0015           hyd0015            soil24  crop_16_lum_15_1     soilplant0015              null           snow001              null
      16  hru0016                topohru0016           hyd0016            soil26  crop_19_lum_16_1     soilplant0016              null           snow001              null
      17  hru0017                topohru0017           hyd0017            soil28  crop_21_lum_17_1     soilplant0017              null           snow001              null
      18  hru0018                topohru0018           hyd0018            soil29 crop_22_drn_lum_18_1     soilplant0018              null           snow001              null
      19  hru0019                topohru0019           hyd0019            soil30  crop_23_lum_19_1     soilplant0019              null           snow001              null
      20  hru0020                topohru0020           hyd0020            soil32  crop_25_lum_20_1     soilplant0020              null           snow001              null
      21  hru0021                topohru0021           hyd0021            soil35 crop_26_drn_lum_21_1     soilplant0021              null           snow001              null
      22  hru0022                topohru0022           hyd0022            soil36  crop_27_lum_22_1     soilplant0022              null           snow001              null
      23  hru0023                topohru0023           hyd0023            soil37  crop_28_lum_23_1     soilplant0023              null           snow001              null
      24  hru0024                topohru0024           hyd0024            soil39  crop_29_lum_24_1     soilplant0024              null           snow001              null
      25  hru0025                topohru0025           hyd0025            soil40  crop_30_lum_25_1     soilplant0025              null           snow001              null
      26  hru0026                topohru0026           hyd0026            soil42  crop_31_lum_26_1     soilplant0026              null           snow001              null
      27  hru0027                topohru0027           hyd0027            soil43  crop_32_lum_27_1     soilplant0027              null           snow001              null
      28  hru0028                topohru0028           hyd0028            soil51  crop_33_lum_28_1     soilplant0028              null           snow001              null
      29  hru0029                topohru0029           hyd0029            soil54  crop_34_lum_29_1     soilplant0029              null           snow001              null
      30  hru0030                topohru0030           hyd0030            soil58  crop_35_lum_30_1     soilplant0030              null           snow001              null
      31  hru0031                topohru0031           hyd0031            soil59  crop_36_lum_31_1     soilplant0031              null           snow001              null
      32  hru0032                topohru0032           hyd0032            soil60  crop_37_lum_32_1     soilplant0032              null           snow001              null
      33  hru0033                topohru0033           hyd0033            soil62  crop_38_lum_33_1     soilplant0033              null           snow001              null
      34  hru0034                topohru0034           hyd0034            soil70  crop_39_lum_34_1     soilplant0034              null           snow001              null
      35  hru0035                topohru0035           hyd0035            soil73  crop_40_lum_35_1     soilplant0035              null           snow001              null
      36  hru0036                topohru0036           hyd0036            soil75  crop_41_lum_36_1     soilplant0036              null           snow001              null
      37  hru0037                topohru0037           hyd0037            soil77  crop_42_lum_37_1     soilplant0037              null           snow001              null
      38  hru0038                topohru0038           hyd0038            soil78  crop_45_lum_38_1     soilplant0038              null           snow001              null
      39  hru0039                topohru0039           hyd0039            soil80  crop_46_lum_39_1     soilplant0039              null           snow001              null
      40  hru0040                topohru0040           hyd0040            soil90  crop_49_lum_40_1     soilplant0040              null           snow001              null
      41  hru0041                topohru0041           hyd0041            soil91  crop_50_lum_41_1     soilplant0041              null           snow001              null
      42  hru0042                topohru0042           hyd0042            soil93  crop_51_lum_42_1     soilplant0042              null           snow001              null
      43  hru0043                topohru0043           hyd0043            soil94  crop_52_lum_43_1     soilplant0043              null           snow001              null
      44  hru0044                topohru0044           hyd0044            soil95  crop_53_lum_44_1     soilplant0044              null           snow001              null
      45  hru0045                topohru0045           hyd0045            soil96  crop_54_lum_45_1     soilplant0045              null           snow001              null
      46  hru0046                topohru0046           hyd0046           soil100  crop_55_lum_46_1     soilplant0046              null           snow001              null
      47  hru0047                topohru0047           hyd0047           soil101  crop_56_lum_47_1     soilplant0047              null           snow001              null
      48  hru0048                topohru0048           hyd0048           soil102 crop_57_drn_lum_48_1     soilplant0048              null           snow001              null
      49  hru0049                topohru0049           hyd0049           soil105  crop_58_lum_49_1     soilplant0049              null           snow001              null
      50  hru0050                topohru0050           hyd0050           soil106  crop_59_lum_50_1     soilplant0050              null           snow001              null
      51  hru0051                topohru0051           hyd0051           soil107  crop_60_lum_51_1     soilplant0051              null           snow001              null
      52  hru0052                topohru0052           hyd0052           soil108  crop_61_lum_52_1     soilplant0052              null           snow001              null
      53  hru0053                topohru0053           hyd0053           soil109  crop_62_lum_53_1     soilplant0053              null           snow001              null
      54  hru0054                topohru0054           hyd0054           soil110 crop_63_drn_lum_54_1     soilplant0054              null           snow001              null
      55  hru0055                topohru0055           hyd0055           soil112 crop_64_drn_lum_55_1     soilplant0055              null           snow001              null
      56  hru0056                topohru0056           hyd0056           soil116  crop_65_lum_56_1     soilplant0056              null           snow001              null
      57  hru0057                topohru0057           hyd0057           soil117  crop_67_lum_57_1     soilplant0057              null           snow001              null
      58  hru0058                topohru0058           hyd0058           soil118  crop_68_lum_58_1     soilplant0058              null           snow001              null
      59  hru0059                topohru0059           hyd0059           soil120 crop_69_drn_lum_59_1     soilplant0059              null           snow001              null
      60  hru0060                topohru0060           hyd0060           soil123  crop_70_lum_60_1     soilplant0060              null           snow001              null
      61  hru0061                topohru0061           hyd0061           soil125  crop_71_lum_61_1     soilplant0061              null           snow001              null
      62  hru0062                topohru0062           hyd0062           soil126  crop_73_lum_62_1     soilplant0062              null           snow001              null
      63  hru0063                topohru0063           hyd0063           soil127  crop_74_lum_63_1     soilplant0063              null           snow001              null
      64  hru0064                topohru0064           hyd0064           soil128  crop_75_lum_64_1     soilplant0064              null           snow001              null
      65  hru0065                topohru0065           hyd0065           soil129  crop_76_lum_65_1     soilplant0065              null           snow001              null
      66  hru0066                topohru0066           hyd0066           soil130  crop_77_lum_66_1     soilplant0066              null           snow001              null
      67  hru0067                topohru0067           hyd0067           soil132 crop_80_drn_lum_67_1     soilplant0067              null           snow001              null
      68  hru0068                topohru0068           hyd0068           soil133  crop_81_lum_68_1     soilplant0068              null           snow001              null
      69  hru0069                topohru0069           hyd0069           soil134  crop_82_lum_69_1     soilplant0069              null           snow001              null
      70  hru0070                topohru0070           hyd0070           soil135  crop_83_lum_70_1     soilplant0070              null           snow001              null
      71  hru0071                topohru0071           hyd0071           soil137  crop_85_lum_71_1     soilplant0071              null           snow001              null
      72  hru0072                topohru0072           hyd0072           soil138  crop_86_lum_72_1     soilplant0072              null           snow001              null
      73  hru0073                topohru0073           hyd0073           soil139  crop_87_lum_73_1     soilplant0073              null           snow001              null
      74  hru0074                topohru0074           hyd0074           soil141  crop_88_lum_74_1     soilplant0074              null           snow001              null
      75  hru0075                topohru0075           hyd0075           soil143  crop_89_lum_75_1     soilplant0075              null           snow001              null
      76  hru0076                topohru0076           hyd0076           soil146 crop_90_drn_lum_76_1     soilplant0076              null           snow001              null
      77  hru0077                topohru0077           hyd0077           soil147  crop_91_lum_77_1     soilplant0077              null           snow001              null
      78  hru0078                topohru0078           hyd0078           soil150  crop_92_lum_78_1     soilplant0078              null           snow001              null
      79  hru0079                topohru0079           hyd0079           soil152  crop_93_lum_79_1     soilplant0079              null           snow001              null
      80  hru0080                topohru0080           hyd0080           soil153  crop_94_lum_80_1     soilplant0080              null           snow001              null
      81  hru0081                topohru0081           hyd0081           soil154  crop_95_lum_81_1     soilplant0081              null           snow001              null
      82  hru0082                topohru0082           hyd0082           soil155  crop_96_lum_82_1     soilplant0082              null           snow001              null
      83  hru0083                topohru0083           hyd0083           soil158  crop_97_lum_83_1     soilplant0083              null           snow001              null
      84  hru0084                topohru0084           hyd0084           soil159 crop_98_drn_lum_84_1     soilplant0084              null           snow001              null
      85  hru0085                topohru0085           hyd0085           soil160  crop_99_lum_85_1     soilplant0085              null           snow001              null
      86  hru0086                topohru0086           hyd0086           soil162 crop_100_lum_86_1     soilplant0086              null           snow001              null
      87  hru0087                topohru0087           hyd0087           soil163 crop_101_lum_87_1     soilplant0087              null           snow001              null
      88  hru0088                topohru0088           hyd0088           soil164 crop_102_lum_88_1     soilplant0088              null           snow001              null
      89  hru0089                topohru0089           hyd0089           soil165 crop_103_lum_89_1     soilplant0089              null           snow001              null
      90  hru0090                topohru0090           hyd0090           soil166 crop_104_lum_90_1     soilplant0090              null           snow001              null
      91  hru0091                topohru0091           hyd0091           soil169 crop_105_lum_91_1     soilplant0091              null           snow001              null
      92  hru0092                topohru0092           hyd0092           soil170 crop_106_lum_92_1     soilplant0092              null           snow001              null
      93  hru0093                topohru0093           hyd0093           soil171 crop_107_lum_93_1     soilplant0093              null           snow001              null
      94  hru0094                topohru0094           hyd0094           soil172 crop_108_lum_94_1     soilplant0094              null           snow001              null
      95  hru0095                topohru0095           hyd0095           soil176 crop_109_lum_95_1     soilplant0095              null           snow001              null
      96  hru0096                topohru0096           hyd0096           soil177 crop_111_lum_96_1     soilplant0096              null           snow001              null
      97  hru0097                topohru0097           hyd0097           soil178 crop_112_lum_97_1     soilplant0097              null           snow001              null
      98  hru0098                topohru0098           hyd0098           soil180 crop_113_lum_98_1     soilplant0098              null           snow001              null
      99  hru0099                topohru0099           hyd0099           soil181 crop_114_drn_lum_99_1     soilplant0099              null           snow001              null
     100  hru0100                topohru0100           hyd0100           soil182 crop_115_lum_100_1     soilplant0100              null           snow001              null
     101  hru0101                topohru0101           hyd0101           soil187 crop_116_lum_101_1     soilplant0101              null           snow001              null
     102  hru0102                topohru0102           hyd0102           soil189 crop_117_lum_102_1     soilplant0102              null           snow001              null
     103  hru0103                topohru0103           hyd0103           soil190 crop_118_lum_103_1     soilplant0103              null           snow001              null
     104  hru0104                topohru0104           hyd0104           soil192 crop_119_lum_104_1     soilplant0104              null           snow001              null
     105  hru0105                topohru0105           hyd0105           soil193 crop_120_lum_105_1     soilplant0105              null           snow001              null
     106  hru0106                topohru0106           hyd0106           soil194 crop_121_drn_lum_106_1     soilplant0106              null           snow001              null
     107  hru0107                topohru0107           hyd0107           soil195 crop_122_lum_107_1     soilplant0107              null           snow001              null
     108  hru0108                topohru0108           hyd0108           soil196 crop_123_lum_108_1     soilplant0108              null           snow001              null
     109  hru0109                topohru0109           hyd0109           soil200 crop_124_lum_109_1     soilplant0109              null           snow001              null
     110  hru0110                topohru0110           hyd0110           soil202 crop_125_lum_110_1     soilplant0110              null           snow001              null
     111  hru0111                topohru0111           hyd0111           soil203 crop_128_lum_111_1     soilplant0111              null           snow001              null
     112  hru0112                topohru0112           hyd0112           soil204 crop_129_lum_112_1     soilplant0112              null           snow001              null
     113  hru0113                topohru0113           hyd0113           soil205 crop_130_lum_113_1     soilplant0113              null           snow001              null
     114  hru0114                topohru0114           hyd0114           soil206 crop_131_lum_114_1     soilplant0114              null           snow001              null
     115  hru0115                topohru0115           hyd0115           soil216 crop_132_lum_115_1     soilplant0115              null           snow001              null
     116  hru0116                topohru0116           hyd0116           soil217 crop_133_lum_116_1     soilplant0116              null           snow001              null
     117  hru0117                topohru0117           hyd0117           soil218 crop_134_lum_117_1     soilplant0117              null           snow001              null
     118  hru0118                topohru0118           hyd0118           soil219 crop_135_lum_118_1     soilplant0118              null           snow001              null
     119  hru0119                topohru0119           hyd0119           soil220 crop_136_lum_119_1     soilplant0119              null           snow001              null
     120  hru0120                topohru0120           hyd0120           soil221 crop_137_drn_lum_120_1     soilplant0120              null           snow001              null
     121  hru0121                topohru0121           hyd0121           soil222 crop_138_lum_121_1     soilplant0121              null           snow001              null
     122  hru0122                topohru0122           hyd0122           soil225 crop_139_drn_lum_122_1     soilplant0122              null           snow001              null
     123  hru0123                topohru0123           hyd0123           soil227 crop_140_lum_123_1     soilplant0123              null           snow001              null
     124  hru0124                topohru0124           hyd0124           soil228 crop_141_drn_lum_124_1     soilplant0124              null           snow001              null
     125  hru0125                topohru0125           hyd0125           soil231 crop_142_drn_lum_125_1     soilplant0125              null           snow001              null
     126  hru0126                topohru0126           hyd0126           soil233 crop_143_lum_126_1     soilplant0126              null           snow001              null
     127  hru0127                topohru0127           hyd0127           soil235 crop_144_lum_127_1     soilplant0127              null           snow001              null
     128  hru0128                topohru0128           hyd0128           soil236 crop_145_lum_128_1     soilplant0128              null           snow001              null
     129  hru0129                topohru0129           hyd0129           soil238 crop_147_drn_lum_129_1     soilplant0129              null           snow001              null
     130  hru0130                topohru0130           hyd0130           soil240 crop_148_lum_130_1     soilplant0130              null           snow001              null
     131  hru0131                topohru0131           hyd0131           soil241 crop_149_lum_131_1     soilplant0131              null           snow001              null
     132  hru0132                topohru0132           hyd0132           soil242 crop_150_lum_132_1     soilplant0132              null           snow001              null
     133  hru0133                topohru0133           hyd0133           soil243 crop_151_lum_133_1     soilplant0133              null           snow001              null
     134  hru0134                topohru0134           hyd0134           soil244 crop_152_drn_lum_134_1     soilplant0134              null           snow001              null
     135  hru0135                topohru0135           hyd0135           soil245 crop_153_lum_135_1     soilplant0135              null           snow001              null
     136  hru0136                topohru0136           hyd0136           soil246 crop_154_lum_136_1     soilplant0136              null           snow001              null
     137  hru0137                topohru0137           hyd0137           soil248 crop_156_drn_lum_137_1     soilplant0137              null           snow001              null
     138  hru0138                topohru0138           hyd0138           soil249 crop_157_drn_lum_138_1     soilplant0138              null           snow001              null
     139  hru0139                topohru0139           hyd0139           soil250 crop_159_lum_139_1     soilplant0139              null           snow001              null
     140  hru0140                topohru0140           hyd0140           soil251 crop_160_lum_140_1     soilplant0140              null           snow001              null
     141  hru0141                topohru0141           hyd0141           soil252 crop_161_lum_141_1     soilplant0141              null           snow001              null
     142  hru0142                topohru0142           hyd0142           soil253 crop_162_lum_142_1     soilplant0142              null           snow001              null
     143  hru0143                topohru0143           hyd0143           soil258 crop_163_lum_143_1     soilplant0143              null           snow001              null
     144  hru0144                topohru0144           hyd0144           soil259 crop_164_drn_lum_144_1     soilplant0144              null           snow001              null
     145  hru0145                topohru0145           hyd0145           soil260 crop_165_drn_lum_145_1     soilplant0145              null           snow001              null
     146  hru0146                topohru0146           hyd0146           soil262 crop_166_drn_lum_146_1     soilplant0146              null           snow001              null
     147  hru0147                topohru0147           hyd0147           soil264 crop_167_drn_lum_147_1     soilplant0147              null           snow001              null
     148  hru0148                topohru0148           hyd0148           soil265 crop_168_lum_148_1     soilplant0148              null           snow001              null
     149  hru0149                topohru0149           hyd0149           soil266 crop_169_lum_149_1     soilplant0149              null           snow001              null
     150  hru0150                topohru0150           hyd0150           soil267 crop_171_drn_lum_150_1     soilplant0150              null           snow001              null
     151  hru0151                topohru0151           hyd0151           soil268 crop_172_lum_151_1     soilplant0151              null           snow001              null
     152  hru0152                topohru0152           hyd0152           soil269 crop_173_lum_152_1     soilplant0152              null           snow001              null
     153  hru0153                topohru0153           hyd0153           soil270 crop_174_lum_153_1     soilplant0153              null           snow001              null
     154  hru0154                topohru0154           hyd0154           soil271 crop_175_drn_lum_154_1     soilplant0154              null           snow001              null
     155  hru0155                topohru0155           hyd0155           soil272 crop_176_drn_lum_155_1     soilplant0155              null           snow001              null
     156  hru0156                topohru0156           hyd0156           soil273 crop_177_lum_156_1     soilplant0156              null           snow001              null
     157  hru0157                topohru0157           hyd0157           soil276 crop_178_lum_157_1     soilplant0157              null           snow001              null
     158  hru0158                topohru0158           hyd0158           soil278 crop_179_drn_lum_158_1     soilplant0158              null           snow001              null
     159  hru0159                topohru0159           hyd0159           soil279 crop_180_lum_159_1     soilplant0159              null           snow001              null
     160  hru0160                topohru0160           hyd0160           soil280 crop_181_drn_lum_160_1     soilplant0160              null           snow001              null
     161  hru0161                topohru0161           hyd0161           soil287 crop_182_drn_lum_161_1     soilplant0161              null           snow001              null
     162  hru0162                topohru0162           hyd0162           soil293 crop_183_lum_162_1     soilplant0162              null           snow001              null
     163  hru0163                topohru0163           hyd0163           soil295 crop_184_drn_lum_163_1     soilplant0163              null           snow001              null
     164  hru0164                topohru0164           hyd0164           soil296 crop_185_drn_lum_164_1     soilplant0164              null           snow001              null
     165  hru0165                topohru0165           hyd0165           soil299 crop_186_lum_165_1     soilplant0165              null           snow001              null
     166  hru0166                topohru0166           hyd0166           soil300 crop_187_lum_166_1     soilplant0166              null           snow001              null
     167  hru0167                topohru0167           hyd0167           soil301 crop_188_drn_lum_167_1     soilplant0167              null           snow001              null
     168  hru0168                topohru0168           hyd0168           soil304 crop_189_lum_168_1     soilplant0168              null           snow001              null
     169  hru0169                topohru0169           hyd0169           soil305 crop_190_drn_lum_169_1     soilplant0169              null           snow001              null
     170  hru0170                topohru0170           hyd0170           soil306 crop_192_lum_170_1     soilplant0170              null           snow001              null
     171  hru0171                topohru0171           hyd0171           soil309 crop_193_lum_171_1     soilplant0171              null           snow001              null
     172  hru0172                topohru0172           hyd0172           soil310 crop_194_drn_lum_172_1     soilplant0172              null           snow001              null