hru.con: written by SWAT+ editor v2.1.0 on 2023-10-24 11:54 for SWAT+ rev.60.5.4
      id  name                gis_id          area           lat           lon          elev       hru               wst       cst      ovfl      rule   out_tot  
       1  hru0001                  0       0.07067      46.80251       6.84699     587.69789         1       s46817n695e         0         0         0         0  
       2  hru0002                  0       0.41988      46.92133       7.00487     521.16294         2       s46817n695e         0         0         0         0  
       3  hru0003                  0       0.61769      46.92215       7.00424     528.27179         3       s46817n695e         0         0         0         0  
       4  hru0004                  0       4.19114      46.77565       6.78993     693.16321         4       s46817n695e         0         0         0         0  
       5  hru0005                  0       2.85488      46.90775       7.00714     432.47461         5       s46817n695e         0         0         0         0  
       6  hru0006                  0       3.12170      46.86345       6.95623     440.72554         6       s46817n695e         0         0         0         0  
       7  hru0007                  0       1.60204      46.88784       6.98733     436.32224         7       s46817n695e         0         0         0         0  
       8  hru0008                  0       2.03630      46.76325       6.79483     644.64988         8       s46817n695e         0         0         0         0  
       9  hru0009                  0       1.55569      46.78693       6.78082     670.41420         9       s46817n695e         0         0         0         0  
      10  hru0010                  0       1.60385      46.86566       6.94918     441.03377        10       s46817n695e         0         0         0         0  
      11  hru0011                  0       1.01204      46.77025       6.82894     677.51344        11       s46817n695e         0         0         0         0  
      12  hru0012                  0       0.85987      46.89880       7.01198     433.91153        12       s46817n695e         0         0         0         0  
      13  hru0013                  0       1.10285      46.88208       6.94204     477.91473        13       s46817n695e         0         0         0         0  
      14  hru0014                  0       1.04459      46.90779       6.99195     468.59994        14       s46817n695e         0         0         0         0  
      15  hru0015                  0       0.98249      46.78416       6.78818     664.37963        15       s46817n695e         0         0         0         0  
      16  hru0016                  0       0.60388      46.90220       6.99849     433.07127        16       s46817n695e         0         0         0         0  
      17  hru0017                  0       1.07344      46.86079       6.91849     481.06835        17       s46817n695e         0         0         0         0  
      18  hru0018                  0       4.82808      46.87075       6.91757     490.89919        18       s46817n695e         0         0         0         0  
      19  hru0019                  0       0.64206      46.75651       6.79581     680.88717        19       s46817n695e         0         0         0         0  
      20  hru0020                  0       1.01320      46.74775       6.78132     691.21206        20       s46817n695e         0         0         0         0  
      21  hru0021                  0       0.59623      46.78042       6.83928     690.31570        21       s46817n695e         0         0         0         0  
      22  hru0022                  0       0.55113      46.87506       6.98338     436.41109        22       s46817n695e         0         0         0         0  
      23  hru0023                  0       1.54751      46.76745       6.78723     720.69907        23       s46817n695e         0         0         0         0  
      24  hru0024                  0       1.60073      46.83542       6.92123     446.53690        24       s46817n695e         0         0         0         0  
      25  hru0025                  0       1.07021      46.91582       7.00477     515.07751        25       s46817n695e         0         0         0         0  
      26  hru0026                  0       2.95741      46.86999       6.95506     439.95991        26       s46817n695e         0         0         0         0  
      27  hru0027                  0       0.03632      46.77659       6.78535     688.49694        27       s46817n695e         0         0         0         0  
      28  hru0028                  0       0.80580      46.74563       6.78801     687.51395        28       s46817n695e         0         0         0         0  
      29  hru0029                  0       1.30428      46.77145       6.82505     670.26098        29       s46817n695e         0         0         0         0  
      30  hru0030                  0       1.56243      46.91099       6.98921     494.11974        30       s46817n695e         0         0         0         0  
      31  hru0031                  0       3.01502      46.90732       7.00155     433.29521        31       s46817n695e         0         0         0         0  
      32  hru0032                  0       3.00207      46.85615       6.93612     442.62667        32       s46817n695e         0         0         0         0  
      33  hru0033                  0       4.13149      46.87984       6.92680     486.99278        33       s46817n695e         0         0         0         0  
      34  hru0034                  0       1.20650      46.76689       6.82564     681.52102        34       s46817n695e         0         0         0         0  
      35  hru0035                  0       0.44102      46.76437       6.79906     636.41296        35       s46817n695e         0         0         0         0  
      36  hru0036                  0       1.22893      46.77022       6.82072     628.76062        36       s46817n695e         0         0         0         0  
      37  hru0037                  0       0.68073      46.77182       6.83285     694.00724        37       s46817n695e         0         0         0         0  
      38  hru0038                  0       0.41435      46.77273       6.82983     686.61732        38       s46817n695e         0         0         0         0  
      39  hru0039                  0       1.21827      46.77162       6.82206     646.44636        39       s46817n695e         0         0         0         0  
      40  hru0040                  0       0.34716      46.74512       6.78817     689.92917        40       s46817n695e         0         0         0         0  
      41  hru0041                  0       0.91824      46.72811       6.78073     802.28116        41       s46817n695e         0         0         0         0  
      42  hru0042                  0       0.90314      46.77735       6.83715     687.46282        42       s46817n695e         0         0         0         0  
      43  hru0043                  0       0.86941      46.77864       6.84226     736.91305        43       s46817n695e         0         0         0         0  
      44  hru0044                  0       0.37816      46.77895       6.84175     730.98555        44       s46817n695e         0         0         0         0  
      45  hru0045                  0       0.83072      46.77438       6.83137     701.73551        45       s46817n695e         0         0         0         0  
      46  hru0046                  0       2.44141      46.81761       6.91705     461.76544        46       s46817n695e         0         0         0         0  
      47  hru0047                  0       1.38878      46.89704       6.95254     511.16603        47       s46817n695e         0         0         0         0  
      48  hru0048                  0       1.48540      46.87495       6.92411     482.31291        48       s46817n695e         0         0         0         0  
      49  hru0049                  0       0.83480      46.92202       7.00678     524.63928        49       s46817n695e         0         0         0         0  
      50  hru0050                  0       1.28330      46.89962       6.98157     486.09127        50       s46817n695e         0         0         0         0  
      51  hru0051                  0       0.20066      46.76624       6.80790     665.40823        51       s46817n695e         0         0         0         0  
      52  hru0052                  0       1.85847      46.89699       6.95742     519.49419        52       s46817n695e         0         0         0         0  
      53  hru0053                  0       2.93979      46.88007       6.96150     463.20040        53       s46817n695e         0         0         0         0  
      54  hru0054                  0       1.55979      46.90935       7.01997     432.47578        54       s46817n695e         0         0         0         0  
      55  hru0055                  0       1.15136      46.74990       6.78362     675.73085        55       s46817n695e         0         0         0         0  
      56  hru0056                  0       0.81832      46.77733       6.84071     724.79395        56       s46817n695e         0         0         0         0  
      57  hru0057                  0       2.02654      46.87416       6.97423     437.90074        57       s46817n695e         0         0         0         0  
      58  hru0058                  0       0.24055      46.87235       6.95120     442.72587        58       s46817n695e         0         0         0         0  
      59  hru0059                  0       1.88737      46.75418       6.78820     670.02022        59       s46817n695e         0         0         0         0  
      60  hru0060                  0       0.55965      46.90109       7.00218     432.87950        60       s46817n695e         0         0         0         0  
      61  hru0061                  0       0.85708      46.77487       6.79912     692.29155        61       s46817n695e         0         0         0         0  
      62  hru0062                  0       1.50920      46.76730       6.82504     681.07953        62       s46817n695e         0         0         0         0  
      63  hru0063                  0       0.45485      46.90906       6.99313     467.51727        63       s46817n695e         0         0         0         0  
      64  hru0064                  0       5.03120      46.84545       6.93619     444.33617        64       s46817n695e         0         0         0         0  
      65  hru0065                  0       4.10431      46.84658       6.93712     443.89454        65       s46817n695e         0         0         0         0  
      66  hru0066                  0       0.81723      46.77675       6.80548     663.73740        66       s46817n695e         0         0         0         0  
      67  hru0067                  0       1.29676      46.91118       7.01593     432.21946        67       s46817n695e         0         0         0         0  
      68  hru0068                  0       0.76996      46.87571       6.98503     436.35911        68       s46817n695e         0         0         0         0  
      69  hru0069                  0       2.41693      46.81782       6.92386     450.22110        69       s46817n695e         0         0         0         0  
      70  hru0070                  0       0.37695      46.80549       6.83381     566.16873        70       s46817n695e         0         0         0         0  
      71  hru0071                  0       5.49663      46.81927       6.92455     448.85103        71       s46817n695e         0         0         0         0  
      72  hru0072                  0       0.62320      46.77380       6.79053     698.86581        72       s46817n695e         0         0         0         0  
      73  hru0073                  0       0.62157      46.87121       6.95159     440.60852        73       s46817n695e         0         0         0         0  
      74  hru0074                  0       0.16600      46.80636       6.83468     551.19057        74       s46817n695e         0         0         0         0  
      75  hru0075                  0       0.82739      46.91756       7.00000     502.77816        75       s46817n695e         0         0         0         0  
      76  hru0076                  0       0.60688      46.75394       6.78866     666.29988        76       s46817n695e         0         0         0         0  
      77  hru0077                  0       0.49861      46.80812       6.84652     526.59369        77       s46817n695e         0         0         0         0  
      78  hru0078                  0       1.35873      46.86068       6.94049     441.77081        78       s46817n695e         0         0         0         0  
      79  hru0079                  0       0.32033      46.76652       6.82958     689.10084        79       s46817n695e         0         0         0         0  
      80  hru0080                  0       0.13996      46.77142       6.81386     633.12413        80       s46817n695e         0         0         0         0  
      81  hru0081                  0       2.92261      46.88967       6.96088     495.33535        81       s46817n695e         0         0         0         0  
      82  hru0082                  0       0.34760      46.77409       6.80964     630.50644        82       s46817n695e         0         0         0         0  
      83  hru0083                  0       2.01075      46.76277       6.80239     676.94763        83       s46817n695e         0         0         0         0  
      84  hru0084                  0       2.27265      46.87397       6.91361     491.27446        84       s46817n695e         0         0         0         0  
      85  hru0085                  0       1.06301      46.89467       6.95484     513.27117        85       s46817n695e         0         0         0         0  
      86  hru0086                  0       1.78400      46.77797       6.79525     695.62057        86       s46817n695e         0         0         0         0  
      87  hru0087                  0       0.94807      46.77288       6.79576     708.00853        87       s46817n695e         0         0         0         0  
      88  hru0088                  0       1.51045      46.77981       6.79732     690.28025        88       s46817n695e         0         0         0         0  
      89  hru0089                  0       0.91753      46.77525       6.79860     702.08618        89       s46817n695e         0         0         0         0  
      90  hru0090                  0       1.29343      46.78147       6.80993     665.69554        90       s46817n695e         0         0         0         0  
      91  hru0091                  0       1.17046      46.91697       7.00315     506.48910        91       s46817n695e         0         0         0         0  
      92  hru0092                  0       2.98164      46.85316       6.93416     443.19077        92       s46817n695e         0         0         0         0  
      93  hru0093                  0       2.07893      46.91764       7.00271     505.91797        93       s46817n695e         0         0         0         0  
      94  hru0094                  0       0.72065      46.92048       7.00328     513.62411        94       s46817n695e         0         0         0         0  
      95  hru0095                  0       3.23770      46.90039       6.99624     434.36663        95       s46817n695e         0         0         0         0  
      96  hru0096                  0       1.61931      46.92732       7.01575     552.20795        96       s46817n695e         0         0         0         0  
      97  hru0097                  0       0.22166      46.92690       7.01345     559.20594        97       s46817n695e         0         0         0         0  
      98  hru0098                  0       0.95212      46.91915       6.99884     510.19224        98       s46817n695e         0         0         0         0  
      99  hru0099                  0       0.67809      46.92002       6.99552     515.76480        99       s46817n695e         0         0         0         0  
     100  hru0100                  0       1.06723      46.91880       7.00379     506.74362       100       s46817n695e         0         0         0         0  
     101  hru0101                  0       0.52754      46.84000       6.93030     445.72916       101       s46817n695e         0         0         0         0  
     102  hru0102                  0       0.99990      46.83113       6.91229     445.06600       102       s46817n695e         0         0         0         0  
     103  hru0103                  0       1.28704      46.77695       6.79703     703.49828       103       s46817n695e         0         0         0         0  
     104  hru0104                  0       5.22407      46.89459       6.99035     436.01109       104       s46817n695e         0         0         0         0  
     105  hru0105                  0       2.57823      46.83073       6.92381     446.59700       105       s46817n695e         0         0         0         0  
     106  hru0106                  0       0.76683      46.91691       6.99053     518.77118       106       s46817n695e         0         0         0         0  
     107  hru0107                  0       2.81604      46.76622       6.81042     660.76688       107       s46817n695e         0         0         0         0  
     108  hru0108                  0       0.65945      46.77273       6.78831     701.47225       108       s46817n695e         0         0         0         0  
     109  hru0109                  0       1.13942      46.84914       6.94032     443.33190       109       s46817n695e         0         0         0         0  
     110  hru0110                  0       0.60873      46.91071       6.99128     484.85567       110       s46817n695e         0         0         0         0  
     111  hru0111                  0       3.57952      46.88679       6.93169     480.54140       111       s46817n695e         0         0         0         0  
     112  hru0112                  0       0.84695      46.77247       6.81492     632.86232       112       s46817n695e         0         0         0         0  
     113  hru0113                  0       1.68401      46.77568       6.79808     709.52139       113       s46817n695e         0         0         0         0  
     114  hru0114                  0       1.32584      46.77673       6.78782     692.59999       114       s46817n695e         0         0         0         0  
     115  hru0115                  0       2.64243      46.87015       6.94220     452.48355       115       s46817n695e         0         0         0         0  
     116  hru0116                  0       0.98735      46.91197       7.00418     460.87156       116       s46817n695e         0         0         0         0  
     117  hru0117                  0       0.78303      46.92126       6.99933     523.40444       117       s46817n695e         0         0         0         0  
     118  hru0118                  0       1.39811      46.89071       6.96514     500.60190       118       s46817n695e         0         0         0         0  
     119  hru0119                  0       1.28205      46.90572       7.00407     432.44430       119       s46817n695e         0         0         0         0  
     120  hru0120                  0       1.68329      46.91567       6.99667     495.64829       120       s46817n695e         0         0         0         0  
     121  hru0121                  0       2.19424      46.88854       6.95192     490.24147       121       s46817n695e         0         0         0         0  
     122  hru0122                  0       1.50568      46.85723       6.90131     496.64043       122       s46817n695e         0         0         0         0  
     123  hru0123                  0       0.78388      46.86541       6.91878     480.37895       123       s46817n695e         0         0         0         0  
     124  hru0124                  0       1.01315      46.85248       6.92264     445.86481       124       s46817n695e         0         0         0         0  
     125  hru0125                  0       3.29500      46.81962       6.87318     468.89303       125       s46817n695e         0         0         0         0  
     126  hru0126                  0       1.91030      46.78915       6.81337     676.09071       126       s46817n695e         0         0         0         0  
     127  hru0127                  0       0.92958      46.86274       6.91770     486.30300       127       s46817n695e         0         0         0         0  
     128  hru0128                  0       1.20017      46.88084       6.99122     435.55018       128       s46817n695e         0         0         0         0  
     129  hru0129                  0       3.13610      46.84396       6.88372     494.86152       129       s46817n695e         0         0         0         0  
     130  hru0130                  0       2.83522      46.84721       6.86705     486.71505       130       s46817n695e         0         0         0         0  
     131  hru0131                  0       1.80948      46.90326       6.99527     433.47702       131       s46817n695e         0         0         0         0  
     132  hru0132                  0       0.85210      46.78864       6.80176     667.84948       132       s46817n695e         0         0         0         0  
     133  hru0133                  0       2.16547      46.89790       6.99196     436.27201       133       s46817n695e         0         0         0         0  
     134  hru0134                  0       3.45109      46.77710       6.82416     623.48623       134       s46817n695e         0         0         0         0  
     135  hru0135                  0       1.19461      46.78611       6.80561     676.22555       135       s46817n695e         0         0         0         0  
     136  hru0136                  0       3.53815      46.88994       6.98870     435.83413       136       s46817n695e         0         0         0         0  
     137  hru0137                  0       3.86177      46.82191       6.89876     462.91427       137       s46817n695e         0         0         0         0  
     138  hru0138                  0       3.85707      46.82620       6.89240     452.17462       138       s46817n695e         0         0         0         0  
     139  hru0139                  0       1.62496      46.82591       6.89514     456.28825       139       s46817n695e         0         0         0         0  
     140  hru0140                  0       1.04288      46.78985       6.79707     653.45935       140       s46817n695e         0         0         0         0  
     141  hru0141                  0       3.02567      46.87375       6.94786     453.91087       141       s46817n695e         0         0         0         0  
     142  hru0142                  0       2.63994      46.78568       6.82826     605.41067       142       s46817n695e         0         0         0         0  
     143  hru0143                  0       4.81639      46.81125       6.80225     640.33587       143       s46817n695e         0         0         0         0  
     144  hru0144                  0       0.00043      46.85660       6.89300     508.51233       144       s46817n695e         0         0         0         0  
     145  hru0145                  0       0.78814      46.84779       6.89493     496.17456       145       s46817n695e         0         0         0         0  
     146  hru0146                  0       3.15027      46.85301       6.90392     490.27321       146       s46817n695e         0         0         0         0  
     147  hru0147                  0       3.24816      46.85471       6.90634     477.49328       147       s46817n695e         0         0         0         0  
     148  hru0148                  0       1.92925      46.78887       6.81391     678.42188       148       s46817n695e         0         0         0         0  
     149  hru0149                  0       2.28962      46.86909       6.95966     439.58631       149       s46817n695e         0         0         0         0  
     150  hru0150                  0       0.64397      46.88160       6.95565     472.72948       150       s46817n695e         0         0         0         0  
     151  hru0151                  0       1.00418      46.82273       6.81762     593.97083       151       s46817n695e         0         0         0         0  
     152  hru0152                  0       2.17428      46.82184       6.82889     571.27079       152       s46817n695e         0         0         0         0  
     153  hru0153                  0       1.59520      46.82056       6.82890     577.59798       153       s46817n695e         0         0         0         0  
     154  hru0154                  0       6.18550      46.82687       6.88831     451.54426       154       s46817n695e         0         0         0         0  
     155  hru0155                  0       3.35811      46.73065       6.77056     747.17302       155       s46817n695e         0         0         0         0  
     156  hru0156                  0       1.52922      46.89170       6.95312     495.42639       156       s46817n695e         0         0         0         0  
     157  hru0157                  0       0.74942      46.84610       6.87156     486.68473       157       s46817n695e         0         0         0         0  
     158  hru0158                  0       1.22507      46.83228       6.87938     475.69728       158       s46817n695e         0         0         0         0  
     159  hru0159                  0       0.90105      46.83710       6.88177     496.45900       159       s46817n695e         0         0         0         0  
     160  hru0160                  0       2.99815      46.82412       6.90143     447.65458       160       s46817n695e         0         0         0         0  
     161  hru0161                  0       1.20553      46.79056       6.83490     632.02059       161       s46817n695e         0         0         0         0  
     162  hru0162                  0       1.18477      46.83918       6.89265     460.17602       162       s46817n695e         0         0         0         0  
     163  hru0163                  0       1.00619      46.83336       6.90678     444.99590       163       s46817n695e         0         0         0         0  
     164  hru0164                  0       1.20744      46.84502       6.90023     487.83458       164       s46817n695e         0         0         0         0  
     165  hru0165                  0       2.12547      46.85729       6.91216     482.23296       165       s46817n695e         0         0         0         0  
     166  hru0166                  0       0.39095      46.85370       6.91084     468.85342       166       s46817n695e         0         0         0         0  
     167  hru0167                  0       5.02899      46.85273       6.90243     496.03959       167       s46817n695e         0         0         0         0  
     168  hru0168                  0       1.58253      46.81029       6.89118     508.14337       168       s46817n695e         0         0         0         0  
     169  hru0169                  0       1.33368      46.90491       7.00844     432.67793       169       s46817n695e         0         0         0         0  
     170  hru0170                  0       0.79065      46.82031       6.89240     471.86358       170       s46817n695e         0         0         0         0  
     171  hru0171                  0       1.00345      46.89817       6.98379     478.90592       171       s46817n695e         0         0         0         0  
     172  hru0172                  0       3.86003      46.82685       6.85864     476.26533       172       s46817n695e         0         0         0         0  
     173  hru0173                  0       5.22676      46.82445       6.92539     447.77660       173       s46817n695e         0         0         0         0  
     174  hru0174                  0       4.16939      46.88130       6.98510     436.17911       174       s46817n695e         0         0         0         0  
     175  hru0175                  0       2.01734      46.89294       6.97150     499.32706       175       s46817n695e         0         0         0         0  
     176  hru0176                  0       0.16533      46.87384       6.90763     496.83752       176       s46817n695e         0         0         0         0  
     177  hru0177                  0       1.33596      46.89342       6.98206     478.10539       177       s46817n695e         0         0         0         0  
     178  hru0178                  0       6.63123      46.82838       6.85973     478.26173       178       s46817n695e         0         0         0         0  
     179  hru0179                  0       1.49163      46.82631       6.84971     493.77520       179       s46817n695e         0         0         0         0  
     180  hru0180                  0       2.87500      46.83136       6.86404     480.32553       180       s46817n695e         0         0         0         0  
     181  hru0181                  0       3.22883      46.83814       6.88601     493.80525       181       s46817n695e         0         0         0         0  
     182  hru0182                  0       1.02557      46.89838       6.97892     493.18824       182       s46817n695e         0         0         0         0  