landuse.lum: written by SWAT+ editor v2.1.0 on 2023-10-24 11:54 for SWAT+ rev.60.5.4
name                         cal_group          plnt_com               mgt               cn2         cons_prac             urban            urb_ro           ov_mann              tile               sep               vfs              grww               bmp  
crop_1_lum                        null         nopl_comm              null              null              null              null              null              null              null              null              null              null              null  
crop_10_lum                       null         nopl_comm              null              null              null              null              null              null              null              null              null              null              null  
crop_100_lum                      null         nopl_comm              null              null              null              null              null              null              null              null              null              null              null  
crop_1000_lum                     null         nopl_comm              null              null              null              null              null              null              null              null              null              null              null  
crop_1001_lum                     null         nopl_comm              null              null              null              null              null              null              null              null              null              null              null  
crop_1002_lum                     null         nopl_comm              null              null              null              null              null              null              null              null              null              null              null  
crop_1003_lum                     null         nopl_comm              null              null              null              null              null              null              null              null              null              null              null  
crop_1004_lum                     null         nopl_comm              null              null              null              null              null              null              null              null              null              null              null  
crop_1005_lum                     null         nopl_comm              null              null              null              null              null              null              null              null              null              null              null  
crop_1006_lum                     null         nopl_comm              null              null              null              null              null              null              null              null              null              null              null  
crop_1007_lum                     null         nopl_comm              null              null              null              null              null              null              null              null              null              null              null  
crop_1008_drn_lum                 null         nopl_comm              null              null              null              null              null              null         mw24_1000              null              null              null              null  
crop_1009_drn_lum                 null         nopl_comm              null              null              null              null              null              null         mw24_1000              null              null              null              null  
crop_101_lum                      null         nopl_comm              null              null              null              null              null              null              null              null              null              null              null  
crop_1010_drn_lum                 null         nopl_comm              null              null              null              null              null              null         mw24_1000              null              null              null              null  
crop_1011_drn_lum                 null         nopl_comm              null              null              null              null              null              null         mw24_1000              null              null              null              null  
crop_1012_drn_lum                 null         nopl_comm              null              null              null              null              null              null         mw24_1000              null              null              null              null  
crop_1013_drn_lum                 null         nopl_comm              null              null              null              null              null              null         mw24_1000              null              null              null              null  
crop_1014_drn_lum                 null         nopl_comm              null              null              null              null              null              null         mw24_1000              null              null              null              null  
crop_1015_drn_lum                 null         nopl_comm              null              null              null              null              null              null         mw24_1000              null              null              null              null  
crop_1016_drn_lum                 null         nopl_comm              null              null              null              null              null              null         mw24_1000              null              null              null              null  
crop_1017_drn_lum                 null         nopl_comm              null              null              null              null              null              null         mw24_1000              null              null              null              null  
crop_1018_lum                     null         nopl_comm              null              null              null              null              null              null              null              null              null              null              null  
crop_102_lum                      null         nopl_comm              null              null              null              null              null              null              null              null              null              null              null  
crop_1020_lum                     null         nopl_comm              null              null              null              null              null              null              null              null              null              null              null  
crop_1021_lum                     null         nopl_comm              null              null              null              null              null              null              null              null              null              null              null  
crop_1022_drn_lum                 null         nopl_comm              null              null              null              null              null              null         mw24_1000              null              null              null              null  
crop_1023_drn_lum                 null         nopl_comm              null              null              null              null              null              null         mw24_1000              null              null              null              null  
crop_1024_lum                     null         nopl_comm              null              null              null              null              null              null              null              null              null              null              null  
crop_1025_lum                     null         nopl_comm              null              null              null              null              null              null              null              null              null              null              null  
crop_1026_drn_lum                 null         nopl_comm              null              null              null              null              null              null         mw24_1000              null              null              null              null  
crop_1027_lum                     null         nopl_comm              null              null              null              null              null              null              null              null              null              null              null  
crop_1028_drn_lum                 null         nopl_comm              null              null              null              null              null              null         mw24_1000              null              null              null              null  
crop_1029_lum                     null         nopl_comm              null              null              null              null              null              null              null              null              null              null              null  
crop_103_lum                      null         nopl_comm              null              null              null              null              null              null              null              null              null              null              null  
crop_1031_lum                     null         nopl_comm              null              null              null              null              null              null              null              null              null              null              null  
crop_1032_lum                     null         nopl_comm              null              null              null              null              null              null              null              null              null              null              null  
crop_1033_lum                     null         nopl_comm              null              null              null              null              null              null              null              null              null              null              null  
crop_1035_lum                     null         nopl_comm              null              null              null              null              null              null              null              null              null              null              null  
crop_1036_lum                     null         nopl_comm              null              null              null              null              null              null              null              null              null              null              null  
crop_1037_lum                     null         nopl_comm              null              null              null              null              null              null              null              null              null              null              null  
crop_1038_lum                     null         nopl_comm              null              null              null              null              null              null              null              null              null              null              null  
crop_1039_lum                     null         nopl_comm              null              null              null              null              null              null              null              null              null              null              null  
crop_104_lum                      null         nopl_comm              null              null              null              null              null              null              null              null              null              null              null  
crop_1040_lum                     null         nopl_comm              null              null              null              null              null              null              null              null              null              null              null  
crop_1041_drn_lum                 null         nopl_comm              null              null              null              null              null              null         mw24_1000              null              null              null              null  
crop_1042_lum                     null         nopl_comm              null              null              null              null              null              null              null              null              null              null              null  
crop_1043_drn_lum                 null         nopl_comm              null              null              null              null              null              null         mw24_1000              null              null              null              null  
crop_1044_lum                     null         nopl_comm              null              null              null              null              null              null              null              null              null              null              null  
crop_1045_lum                     null         nopl_comm              null              null              null              null              null              null              null              null              null              null              null  
crop_1046_drn_lum                 null         nopl_comm              null              null              null              null              null              null         mw24_1000              null              null              null              null  
crop_1047_drn_lum                 null         nopl_comm              null              null              null              null              null              null         mw24_1000              null              null              null              null  
crop_1048_lum                     null         nopl_comm              null              null              null              null              null              null              null              null              null              null              null  
crop_1049_drn_lum                 null         nopl_comm              null              null              null              null              null              null         mw24_1000              null              null              null              null  
crop_105_lum                      null         nopl_comm              null              null              null              null              null              null              null              null              null              null              null  
crop_1051_drn_lum                 null         nopl_comm              null              null              null              null              null              null         mw24_1000              null              null              null              null  
crop_1052_drn_lum                 null         nopl_comm              null              null              null              null              null              null         mw24_1000              null              null              null              null  
crop_1053_lum                     null         nopl_comm              null              null              null              null              null              null              null              null              null              null              null  
crop_1054_lum                     null         nopl_comm              null              null              null              null              null              null              null              null              null              null              null  
crop_1055_drn_lum                 null         nopl_comm              null              null              null              null              null              null         mw24_1000              null              null              null              null  
crop_1056_lum                     null         nopl_comm              null              null              null              null              null              null              null              null              null              null              null  
crop_1057_lum                     null         nopl_comm              null              null              null              null              null              null              null              null              null              null              null  
crop_1058_drn_lum                 null         nopl_comm              null              null              null              null              null              null         mw24_1000              null              null              null              null  
crop_1059_lum                     null         nopl_comm              null              null              null              null              null              null              null              null              null              null              null  
crop_106_lum                      null         nopl_comm              null              null              null              null              null              null              null              null              null              null              null  
crop_1060_lum                     null         nopl_comm              null              null              null              null              null              null              null              null              null              null              null  
crop_1061_lum                     null         nopl_comm              null              null              null              null              null              null              null              null              null              null              null  
crop_1063_lum                     null         nopl_comm              null              null              null              null              null              null              null              null              null              null              null  
crop_1064_lum                     null         nopl_comm              null              null              null              null              null              null              null              null              null              null              null  
crop_1065_drn_lum                 null         nopl_comm              null              null              null              null              null              null         mw24_1000              null              null              null              null  
crop_1066_lum                     null         nopl_comm              null              null              null              null              null              null              null              null              null              null              null  
crop_1067_lum                     null         nopl_comm              null              null              null              null              null              null              null              null              null              null              null  
crop_1068_lum                     null         nopl_comm              null              null              null              null              null              null              null              null              null              null              null  
crop_1069_lum                     null         nopl_comm              null              null              null              null              null              null              null              null              null              null              null  
crop_107_lum                      null         nopl_comm              null              null              null              null              null              null              null              null              null              null              null  
crop_1070_lum                     null         nopl_comm              null              null              null              null              null              null              null              null              null              null              null  
crop_1073_drn_lum                 null         nopl_comm              null              null              null              null              null              null         mw24_1000              null              null              null              null  
crop_1074_drn_lum                 null         nopl_comm              null              null              null              null              null              null         mw24_1000              null              null              null              null  
crop_1075_drn_lum                 null         nopl_comm              null              null              null              null              null              null         mw24_1000              null              null              null              null  
crop_1076_lum                     null         nopl_comm              null              null              null              null              null              null              null              null              null              null              null  
crop_1077_drn_lum                 null         nopl_comm              null              null              null              null              null              null         mw24_1000              null              null              null              null  
crop_1078_drn_lum                 null         nopl_comm              null              null              null              null              null              null         mw24_1000              null              null              null              null  
crop_1079_lum                     null         nopl_comm              null              null              null              null              null              null              null              null              null              null              null  
crop_108_lum                      null         nopl_comm              null              null              null              null              null              null              null              null              null              null              null  
crop_1080_lum                     null         nopl_comm              null              null              null              null              null              null              null              null              null              null              null  
crop_1081_lum                     null         nopl_comm              null              null              null              null              null              null              null              null              null              null              null  
crop_1082_lum                     null         nopl_comm              null              null              null              null              null              null              null              null              null              null              null  
crop_1083_lum                     null         nopl_comm              null              null              null              null              null              null              null              null              null              null              null  
crop_1084_lum                     null         nopl_comm              null              null              null              null              null              null              null              null              null              null              null  
crop_1085_drn_lum                 null         nopl_comm              null              null              null              null              null              null         mw24_1000              null              null              null              null  
crop_1086_drn_lum                 null         nopl_comm              null              null              null              null              null              null         mw24_1000              null              null              null              null  
crop_1087_lum                     null         nopl_comm              null              null              null              null              null              null              null              null              null              null              null  
crop_1088_lum                     null         nopl_comm              null              null              null              null              null              null              null              null              null              null              null  
crop_1089_drn_lum                 null         nopl_comm              null              null              null              null              null              null         mw24_1000              null              null              null              null  
crop_109_lum                      null         nopl_comm              null              null              null              null              null              null              null              null              null              null              null  
crop_1090_drn_lum                 null         nopl_comm              null              null              null              null              null              null         mw24_1000              null              null              null              null  
crop_1091_drn_lum                 null         nopl_comm              null              null              null              null              null              null         mw24_1000              null              null              null              null  
crop_1092_lum                     null         nopl_comm              null              null              null              null              null              null              null              null              null              null              null  
crop_1093_drn_lum                 null         nopl_comm              null              null              null              null              null              null         mw24_1000              null              null              null              null  
crop_1094_drn_lum                 null         nopl_comm              null              null              null              null              null              null         mw24_1000              null              null              null              null  
crop_1095_lum                     null         nopl_comm              null              null              null              null              null              null              null              null              null              null              null  
crop_1096_lum                     null         nopl_comm              null              null              null              null              null              null              null              null              null              null              null  
crop_1097_lum                     null         nopl_comm              null              null              null              null              null              null              null              null              null              null              null  
crop_1098_lum                     null         nopl_comm              null              null              null              null              null              null              null              null              null              null              null  
crop_1099_lum                     null         nopl_comm              null              null              null              null              null              null              null              null              null              null              null  
crop_11_lum                       null         nopl_comm              null              null              null              null              null              null              null              null              null              null              null  
crop_1100_drn_lum                 null         nopl_comm              null              null              null              null              null              null         mw24_1000              null              null              null              null  
crop_1101_drn_lum                 null         nopl_comm              null              null              null              null              null              null         mw24_1000              null              null              null              null  
crop_1102_lum                     null         nopl_comm              null              null              null              null              null              null              null              null              null              null              null  
crop_1105_lum                     null         nopl_comm              null              null              null              null              null              null              null              null              null              null              null  
crop_1106_lum                     null         nopl_comm              null              null              null              null              null              null              null              null              null              null              null  
crop_1107_lum                     null         nopl_comm              null              null              null              null              null              null              null              null              null              null              null  
crop_1108_lum                     null         nopl_comm              null              null              null              null              null              null              null              null              null              null              null  
crop_1109_lum                     null         nopl_comm              null              null              null              null              null              null              null              null              null              null              null  
crop_111_lum                      null         nopl_comm              null              null              null              null              null              null              null              null              null              null              null  