landuse.lum: written by SWAT+ editor v2.1.0 on 2023-10-24 11:54 for SWAT+ rev.60.5.4, edited manually on 2024-03-19 14:03:27.112834 and edited with SWATfarmR 2.0.5 on 2024-03-25 11:40:01
name                         cal_group          plnt_com               mgt               cn2         cons_prac             urban            urb_ro           ov_mann              tile               sep               vfs              grww               bmp
crop_1000_lum_884_1               null crop_1000_comm_884_1 crop_1000_mgt_884_1        rc_strow_g       cross_slope              null              null    convtill_nores              null              null              null              null              null
crop_1001_lum_885_1               null crop_1001_comm_885_1 crop_1001_mgt_885_1        rc_strow_g       cross_slope              null              null    convtill_nores              null              null              null              null              null
crop_1002_lum_886_1               null crop_1002_comm_886_1 crop_1002_mgt_886_1        rc_strow_g       cross_slope              null              null    convtill_nores              null              null              null              null              null
crop_1003_lum_887_1               null crop_1003_comm_887_1 crop_1003_mgt_887_1        rc_strow_g       cross_slope              null              null    convtill_nores              null              null              null              null              null
crop_1004_lum_888_1               null crop_1004_comm_888_1 crop_1004_mgt_888_1        rc_strow_g       cross_slope              null              null    convtill_nores              null              null              null              null              null
crop_1005_lum_889_1               null crop_1005_comm_889_1 crop_1005_mgt_889_1        rc_strow_g       cross_slope              null              null    convtill_nores              null              null              null              null              null
crop_1006_lum_890_1               null crop_1006_comm_890_1 crop_1006_mgt_890_1        rc_strow_g       cross_slope              null              null    convtill_nores              null              null              null              null              null
crop_1007_lum_891_1               null crop_1007_comm_891_1 crop_1007_mgt_891_1        rc_strow_g       cross_slope              null              null    convtill_nores              null              null              null              null              null
crop_1008_drn_lum_892_1              null crop_1008_drn_comm_892_1 crop_1008_drn_mgt_892_1        rc_strow_g       cross_slope              null              null    convtill_nores         mw24_1000              null              null              null              null
crop_1009_drn_lum_893_1              null crop_1009_drn_comm_893_1 crop_1009_drn_mgt_893_1        rc_strow_g       cross_slope              null              null    convtill_nores         mw24_1000              null              null              null              null
crop_100_lum_86_1                 null crop_100_comm_86_1 crop_100_mgt_86_1        rc_strow_g       cross_slope              null              null    convtill_nores              null              null              null              null              null
crop_1010_drn_lum_894_1              null crop_1010_drn_comm_894_1 crop_1010_drn_mgt_894_1        rc_strow_g       cross_slope              null              null    convtill_nores         mw24_1000              null              null              null              null
crop_1011_drn_lum_895_1              null crop_1011_drn_comm_895_1 crop_1011_drn_mgt_895_1        rc_strow_g       cross_slope              null              null    convtill_nores         mw24_1000              null              null              null              null
crop_1012_drn_lum_896_1              null crop_1012_drn_comm_896_1 crop_1012_drn_mgt_896_1        rc_strow_g       cross_slope              null              null    convtill_nores         mw24_1000              null              null              null              null
crop_1013_drn_lum_897_1              null crop_1013_drn_comm_897_1 crop_1013_drn_mgt_897_1        rc_strow_g       cross_slope              null              null    convtill_nores         mw24_1000              null              null              null              null
crop_1014_drn_lum_898_1              null crop_1014_drn_comm_898_1 crop_1014_drn_mgt_898_1        rc_strow_g       cross_slope              null              null    convtill_nores         mw24_1000              null              null              null              null
crop_1015_drn_lum_899_1              null crop_1015_drn_comm_899_1 crop_1015_drn_mgt_899_1        rc_strow_g       cross_slope              null              null    convtill_nores         mw24_1000              null              null              null              null
crop_1016_drn_lum_900_1              null crop_1016_drn_comm_900_1 crop_1016_drn_mgt_900_1        rc_strow_g       cross_slope              null              null    convtill_nores         mw24_1000              null              null              null              null
crop_1017_drn_lum_901_1              null crop_1017_drn_comm_901_1 crop_1017_drn_mgt_901_1        rc_strow_g       cross_slope              null              null    convtill_nores         mw24_1000              null              null              null              null
crop_1018_lum_7613_1              null crop_1018_comm_7613_1 crop_1018_mgt_7613_1        rc_strow_g       cross_slope              null              null    convtill_nores              null              null              null              null              null
crop_1018_lum_902_1               null crop_1018_comm_902_1 crop_1018_mgt_902_1        rc_strow_g       cross_slope              null              null    convtill_nores              null              null              null              null              null
crop_101_lum_87_1                 null crop_101_comm_87_1 crop_101_mgt_87_1        rc_strow_g       cross_slope              null              null    convtill_nores              null              null              null              null              null
crop_1020_lum_903_1               null crop_1020_comm_903_1 crop_1020_mgt_903_1        rc_strow_g       cross_slope              null              null    convtill_nores              null              null              null              null              null
crop_1021_lum_904_1               null crop_1021_comm_904_1 crop_1021_mgt_904_1        rc_strow_g       cross_slope              null              null    convtill_nores              null              null              null              null              null
crop_1022_drn_lum_905_1              null crop_1022_drn_comm_905_1 crop_1022_drn_mgt_905_1        rc_strow_g       cross_slope              null              null    convtill_nores         mw24_1000              null              null              null              null
crop_1023_drn_lum_906_1              null crop_1023_drn_comm_906_1 crop_1023_drn_mgt_906_1        rc_strow_g       cross_slope              null              null    convtill_nores         mw24_1000              null              null              null              null
crop_1024_lum_907_1               null crop_1024_comm_907_1 crop_1024_mgt_907_1        rc_strow_g       cross_slope              null              null    convtill_nores              null              null              null              null              null
crop_1025_lum_908_1               null crop_1025_comm_908_1 crop_1025_mgt_908_1        rc_strow_g       cross_slope              null              null    convtill_nores              null              null              null              null              null
crop_1026_drn_lum_909_1              null crop_1026_drn_comm_909_1 crop_1026_drn_mgt_909_1        rc_strow_g       cross_slope              null              null    convtill_nores         mw24_1000              null              null              null              null
crop_1027_lum_910_1               null crop_1027_comm_910_1 crop_1027_mgt_910_1        rc_strow_g       cross_slope              null              null    convtill_nores              null              null              null              null              null
crop_1028_drn_lum_911_1              null crop_1028_drn_comm_911_1 crop_1028_drn_mgt_911_1        rc_strow_g       cross_slope              null              null    convtill_nores         mw24_1000              null              null              null              null
crop_1029_lum_7666_1              null crop_1029_comm_7666_1 crop_1029_mgt_7666_1        rc_strow_g       cross_slope              null              null    convtill_nores              null              null              null              null              null
crop_1029_lum_912_1               null crop_1029_comm_912_1 crop_1029_mgt_912_1        rc_strow_g       cross_slope              null              null    convtill_nores              null              null              null              null              null
crop_102_lum_88_1                 null crop_102_comm_88_1 crop_102_mgt_88_1        rc_strow_g       cross_slope              null              null    convtill_nores              null              null              null              null              null
crop_1031_lum_913_1               null crop_1031_comm_913_1 crop_1031_mgt_913_1        rc_strow_g       cross_slope              null              null    convtill_nores              null              null              null              null              null
crop_1032_lum_914_1               null crop_1032_comm_914_1 crop_1032_mgt_914_1        rc_strow_g       cross_slope              null              null    convtill_nores              null              null              null              null              null
crop_1033_lum_7270_1              null crop_1033_comm_7270_1 crop_1033_mgt_7270_1        rc_strow_g       cross_slope              null              null    convtill_nores              null              null              null              null              null
crop_1033_lum_915_1               null crop_1033_comm_915_1 crop_1033_mgt_915_1        rc_strow_g       cross_slope              null              null    convtill_nores              null              null              null              null              null
crop_1035_lum_916_1               null crop_1035_comm_916_1 crop_1035_mgt_916_1        rc_strow_g       cross_slope              null              null    convtill_nores              null              null              null              null              null
crop_1036_lum_917_1               null crop_1036_comm_917_1 crop_1036_mgt_917_1        rc_strow_g       cross_slope              null              null    convtill_nores              null              null              null              null              null
crop_1037_lum_918_1               null crop_1037_comm_918_1 crop_1037_mgt_918_1        rc_strow_g       cross_slope              null              null    convtill_nores              null              null              null              null              null
crop_1038_lum_919_1               null crop_1038_comm_919_1 crop_1038_mgt_919_1        rc_strow_g       cross_slope              null              null    convtill_nores              null              null              null              null              null
crop_1039_lum_920_1               null crop_1039_comm_920_1 crop_1039_mgt_920_1        rc_strow_g       cross_slope              null              null    convtill_nores              null              null              null              null              null
crop_103_lum_89_1                 null crop_103_comm_89_1 crop_103_mgt_89_1        rc_strow_g       cross_slope              null              null    convtill_nores              null              null              null              null              null
crop_1040_lum_921_1               null crop_1040_comm_921_1 crop_1040_mgt_921_1        rc_strow_g       cross_slope              null              null    convtill_nores              null              null              null              null              null
crop_1041_drn_lum_922_1              null crop_1041_drn_comm_922_1 crop_1041_drn_mgt_922_1        rc_strow_g       cross_slope              null              null    convtill_nores         mw24_1000              null              null              null              null
crop_1042_lum_923_1               null crop_1042_comm_923_1 crop_1042_mgt_923_1        rc_strow_g       cross_slope              null              null    convtill_nores              null              null              null              null              null
crop_1043_drn_lum_924_1              null crop_1043_drn_comm_924_1 crop_1043_drn_mgt_924_1        rc_strow_g       cross_slope              null              null    convtill_nores         mw24_1000              null              null              null              null
crop_1044_lum_925_1               null crop_1044_comm_925_1 crop_1044_mgt_925_1        rc_strow_g       cross_slope              null              null    convtill_nores              null              null              null              null              null
crop_1045_lum_926_1               null crop_1045_comm_926_1 crop_1045_mgt_926_1        rc_strow_g       cross_slope              null              null    convtill_nores              null              null              null              null              null
crop_1046_drn_lum_927_1              null crop_1046_drn_comm_927_1 crop_1046_drn_mgt_927_1        rc_strow_g       cross_slope              null              null    convtill_nores         mw24_1000              null              null              null              null
crop_1047_drn_lum_928_1              null crop_1047_drn_comm_928_1 crop_1047_drn_mgt_928_1        rc_strow_g       cross_slope              null              null    convtill_nores         mw24_1000              null              null              null              null
crop_1048_lum_929_1               null crop_1048_comm_929_1 crop_1048_mgt_929_1        rc_strow_g       cross_slope              null              null    convtill_nores              null              null              null              null              null
crop_1049_drn_lum_7271_1              null crop_1049_drn_comm_7271_1 crop_1049_drn_mgt_7271_1        rc_strow_g       cross_slope              null              null    convtill_nores         mw24_1000              null              null              null              null
crop_1049_drn_lum_930_1              null crop_1049_drn_comm_930_1 crop_1049_drn_mgt_930_1        rc_strow_g       cross_slope              null              null    convtill_nores         mw24_1000              null              null              null              null
crop_104_lum_90_1                 null crop_104_comm_90_1 crop_104_mgt_90_1        rc_strow_g       cross_slope              null              null    convtill_nores              null              null              null              null              null
crop_1051_drn_lum_931_1              null crop_1051_drn_comm_931_1 crop_1051_drn_mgt_931_1        rc_strow_g       cross_slope              null              null    convtill_nores         mw24_1000              null              null              null              null
crop_1052_drn_lum_932_1              null crop_1052_drn_comm_932_1 crop_1052_drn_mgt_932_1        rc_strow_g       cross_slope              null              null    convtill_nores         mw24_1000              null              null              null              null
crop_1053_lum_933_1               null crop_1053_comm_933_1 crop_1053_mgt_933_1        rc_strow_g       cross_slope              null              null    convtill_nores              null              null              null              null              null
crop_1054_lum_934_1               null crop_1054_comm_934_1 crop_1054_mgt_934_1        rc_strow_g       cross_slope              null              null    convtill_nores              null              null              null              null              null
crop_1055_drn_lum_935_1              null crop_1055_drn_comm_935_1 crop_1055_drn_mgt_935_1        rc_strow_g       cross_slope              null              null    convtill_nores         mw24_1000              null              null              null              null
crop_1056_lum_936_1               null crop_1056_comm_936_1 crop_1056_mgt_936_1        rc_strow_g       cross_slope              null              null    convtill_nores              null              null              null              null              null
crop_1057_lum_937_1               null crop_1057_comm_937_1 crop_1057_mgt_937_1        rc_strow_g       cross_slope              null              null    convtill_nores              null              null              null              null              null
crop_1058_drn_lum_938_1              null crop_1058_drn_comm_938_1 crop_1058_drn_mgt_938_1        rc_strow_g       cross_slope              null              null    convtill_nores         mw24_1000              null              null              null              null
crop_1059_lum_939_1               null crop_1059_comm_939_1 crop_1059_mgt_939_1        rc_strow_g       cross_slope              null              null    convtill_nores              null              null              null              null              null
crop_105_lum_91_1                 null crop_105_comm_91_1 crop_105_mgt_91_1        rc_strow_g       cross_slope              null              null    convtill_nores              null              null              null              null              null
crop_1060_lum_940_1               null crop_1060_comm_940_1 crop_1060_mgt_940_1        rc_strow_g       cross_slope              null              null    convtill_nores              null              null              null              null              null
crop_1061_lum_7738_1              null crop_1061_comm_7738_1 crop_1061_mgt_7738_1        rc_strow_g       cross_slope              null              null    convtill_nores              null              null              null              null              null
crop_1061_lum_941_1               null crop_1061_comm_941_1 crop_1061_mgt_941_1        rc_strow_g       cross_slope              null              null    convtill_nores              null              null              null              null              null
crop_1063_lum_942_1               null crop_1063_comm_942_1 crop_1063_mgt_942_1        rc_strow_g       cross_slope              null              null    convtill_nores              null              null              null              null              null
crop_1064_lum_943_1               null crop_1064_comm_943_1 crop_1064_mgt_943_1        rc_strow_g       cross_slope              null              null    convtill_nores              null              null              null              null              null
crop_1065_drn_lum_944_1              null crop_1065_drn_comm_944_1 crop_1065_drn_mgt_944_1        rc_strow_g       cross_slope              null              null    convtill_nores         mw24_1000              null              null              null              null
crop_1066_lum_945_1               null crop_1066_comm_945_1 crop_1066_mgt_945_1        rc_strow_g       cross_slope              null              null    convtill_nores              null              null              null              null              null
crop_1067_lum_946_1               null crop_1067_comm_946_1 crop_1067_mgt_946_1        rc_strow_g       cross_slope              null              null    convtill_nores              null              null              null              null              null
crop_1068_lum_947_1               null crop_1068_comm_947_1 crop_1068_mgt_947_1        rc_strow_g       cross_slope              null              null    convtill_nores              null              null              null              null              null
crop_1069_lum_948_1               null crop_1069_comm_948_1 crop_1069_mgt_948_1        rc_strow_g       cross_slope              null              null    convtill_nores              null              null              null              null              null
crop_106_lum_92_1                 null crop_106_comm_92_1 crop_106_mgt_92_1        rc_strow_g       cross_slope              null              null    convtill_nores              null              null              null              null              null
crop_1070_lum_7696_1              null crop_1070_comm_7696_1 crop_1070_mgt_7696_1        rc_strow_g       cross_slope              null              null    convtill_nores              null              null              null              null              null
crop_1070_lum_7697_1              null crop_1070_comm_7697_1 crop_1070_mgt_7697_1        rc_strow_g       cross_slope              null              null    convtill_nores              null              null              null              null              null
crop_1070_lum_949_1               null crop_1070_comm_949_1 crop_1070_mgt_949_1        rc_strow_g       cross_slope              null              null    convtill_nores              null              null              null              null              null
crop_1073_drn_lum_950_1              null crop_1073_drn_comm_950_1 crop_1073_drn_mgt_950_1        rc_strow_g       cross_slope              null              null    convtill_nores         mw24_1000              null              null              null              null
crop_1074_drn_lum_951_1              null crop_1074_drn_comm_951_1 crop_1074_drn_mgt_951_1        rc_strow_g       cross_slope              null              null    convtill_nores         mw24_1000              null              null              null              null
crop_1075_drn_lum_952_1              null crop_1075_drn_comm_952_1 crop_1075_drn_mgt_952_1        rc_strow_g       cross_slope              null              null    convtill_nores         mw24_1000              null              null              null              null
crop_1076_lum_953_1               null crop_1076_comm_953_1 crop_1076_mgt_953_1        rc_strow_g       cross_slope              null              null    convtill_nores              null              null              null              null              null
crop_1077_drn_lum_954_1              null crop_1077_drn_comm_954_1 crop_1077_drn_mgt_954_1        rc_strow_g       cross_slope              null              null    convtill_nores         mw24_1000              null              null              null              null
crop_1078_drn_lum_955_1              null crop_1078_drn_comm_955_1 crop_1078_drn_mgt_955_1        rc_strow_g       cross_slope              null              null    convtill_nores         mw24_1000              null              null              null              null
crop_1079_lum_956_1               null crop_1079_comm_956_1 crop_1079_mgt_956_1        rc_strow_g       cross_slope              null              null    convtill_nores              null              null              null              null              null
crop_107_lum_93_1                 null crop_107_comm_93_1 crop_107_mgt_93_1        rc_strow_g       cross_slope              null              null    convtill_nores              null              null              null              null              null
crop_1080_lum_957_1               null crop_1080_comm_957_1 crop_1080_mgt_957_1        rc_strow_g       cross_slope              null              null    convtill_nores              null              null              null              null              null
crop_1081_lum_958_1               null crop_1081_comm_958_1 crop_1081_mgt_958_1        rc_strow_g       cross_slope              null              null    convtill_nores              null              null              null              null              null
crop_1082_lum_959_1               null crop_1082_comm_959_1 crop_1082_mgt_959_1        rc_strow_g       cross_slope              null              null    convtill_nores              null              null              null              null              null
crop_1083_lum_960_1               null crop_1083_comm_960_1 crop_1083_mgt_960_1        rc_strow_g       cross_slope              null              null    convtill_nores              null              null              null              null              null
crop_1084_lum_961_1               null crop_1084_comm_961_1 crop_1084_mgt_961_1        rc_strow_g       cross_slope              null              null    convtill_nores              null              null              null              null              null
crop_1085_drn_lum_962_1              null crop_1085_drn_comm_962_1 crop_1085_drn_mgt_962_1        rc_strow_g       cross_slope              null              null    convtill_nores         mw24_1000              null              null              null              null
crop_1086_drn_lum_963_1              null crop_1086_drn_comm_963_1 crop_1086_drn_mgt_963_1        rc_strow_g       cross_slope              null              null    convtill_nores         mw24_1000              null              null              null              null
crop_1087_lum_964_1               null crop_1087_comm_964_1 crop_1087_mgt_964_1        rc_strow_g       cross_slope              null              null    convtill_nores              null              null              null              null              null
crop_1088_lum_965_1               null crop_1088_comm_965_1 crop_1088_mgt_965_1        rc_strow_g       cross_slope              null              null    convtill_nores              null              null              null              null              null
crop_1089_drn_lum_966_1              null crop_1089_drn_comm_966_1 crop_1089_drn_mgt_966_1        rc_strow_g       cross_slope              null              null    convtill_nores         mw24_1000              null              null              null              null
crop_108_lum_94_1                 null crop_108_comm_94_1 crop_108_mgt_94_1        rc_strow_g       cross_slope              null              null    convtill_nores              null              null              null              null              null
crop_1090_drn_lum_967_1              null crop_1090_drn_comm_967_1 crop_1090_drn_mgt_967_1        rc_strow_g       cross_slope              null              null    convtill_nores         mw24_1000              null              null              null              null
crop_1091_drn_lum_968_1              null crop_1091_drn_comm_968_1 crop_1091_drn_mgt_968_1        rc_strow_g       cross_slope              null              null    convtill_nores         mw24_1000              null              null              null              null
crop_1092_lum_969_1               null crop_1092_comm_969_1 crop_1092_mgt_969_1        rc_strow_g       cross_slope              null              null    convtill_nores              null              null              null              null              null
crop_1093_drn_lum_970_1              null crop_1093_drn_comm_970_1 crop_1093_drn_mgt_970_1        rc_strow_g       cross_slope              null              null    convtill_nores         mw24_1000              null              null              null              null
crop_1094_drn_lum_971_1              null crop_1094_drn_comm_971_1 crop_1094_drn_mgt_971_1        rc_strow_g       cross_slope              null              null    convtill_nores         mw24_1000              null              null              null              null
crop_1095_lum_972_1               null crop_1095_comm_972_1 crop_1095_mgt_972_1        rc_strow_g       cross_slope              null              null    convtill_nores              null              null              null              null              null
crop_1096_lum_973_1               null crop_1096_comm_973_1 crop_1096_mgt_973_1        rc_strow_g       cross_slope              null              null    convtill_nores              null              null              null              null              null
crop_1097_lum_974_1               null crop_1097_comm_974_1 crop_1097_mgt_974_1        rc_strow_g       cross_slope              null              null    convtill_nores              null              null              null              null              null
crop_1098_lum_975_1               null crop_1098_comm_975_1 crop_1098_mgt_975_1        rc_strow_g       cross_slope              null              null    convtill_nores              null              null              null              null              null
crop_1099_lum_976_1               null crop_1099_comm_976_1 crop_1099_mgt_976_1        rc_strow_g       cross_slope              null              null    convtill_nores              null              null              null              null              null
crop_109_lum_7254_1               null crop_109_comm_7254_1 crop_109_mgt_7254_1        rc_strow_g       cross_slope              null              null    convtill_nores              null              null              null              null              null
crop_109_lum_95_1                 null crop_109_comm_95_1 crop_109_mgt_95_1        rc_strow_g       cross_slope              null              null    convtill_nores              null              null              null              null              null
crop_10_lum_10_1                  null crop_10_comm_10_1  crop_10_mgt_10_1        rc_strow_g       cross_slope              null              null    convtill_nores              null              null              null              null              null