ls_unit.def: written by SWAT+ editor v2.1.0 on 2024-03-26 18:09 for SWAT+ rev.60.5.4
8056
      id              name          area  elem_tot  elements  
       1           rtu0001       0.07067         1         1  
       2           rtu0002       0.41988         1         2  
       3           rtu0003       0.61769         1         3  
       4           rtu0004       4.19114         1         4  
       5           rtu0005       2.85488         1         5  
       6           rtu0006       3.12170         1         6  
       7           rtu0007       1.60204         1         7  
       8           rtu0008       2.03630         1         8  
       9           rtu0009       1.55569         1         9  
      10           rtu0010       1.60385         1        10  
      11           rtu0011       1.01204         1        11  
      12           rtu0012       0.85987         1        12  
      13           rtu0013       1.10285         1        13  
      14           rtu0014       1.04459         1        14  
      15           rtu0015       0.98249         1        15  
      16           rtu0016       0.60388         1        16  
      17           rtu0017       1.07344         1        17  
      18           rtu0018       4.82808         1        18  
      19           rtu0019       0.64206         1        19  
      20           rtu0020       1.01320         1        20  
      21           rtu0021       0.59623         1        21  
      22           rtu0022       0.55113         1        22  
      23           rtu0023       1.54751         1        23  
      24           rtu0024       1.60073         1        24  
      25           rtu0025       1.07021         1        25  
      26           rtu0026       2.95741         1        26  
      27           rtu0027       0.03632         1        27  
      28           rtu0028       0.80580         1        28  
      29           rtu0029       1.30428         1        29  
      30           rtu0030       1.56243         1        30  
      31           rtu0031       3.01502         1        31  
      32           rtu0032       3.00207         1        32  
      33           rtu0033       4.13149         1        33  
      34           rtu0034       1.20650         1        34  
      35           rtu0035       0.44102         1        35  
      36           rtu0036       1.22893         1        36  
      37           rtu0037       0.68073         1        37  
      38           rtu0038       0.41435         1        38  
      39           rtu0039       1.21827         1        39  
      40           rtu0040       0.34716         1        40  
      41           rtu0041       0.91824         1        41  
      42           rtu0042       0.90314         1        42  
      43           rtu0043       0.86941         1        43  
      44           rtu0044       0.37816         1        44  
      45           rtu0045       0.83072         1        45  
      46           rtu0046       2.44141         1        46  
      47           rtu0047       1.38878         1        47  
      48           rtu0048       1.48540         1        48  
      49           rtu0049       0.83480         1        49  
      50           rtu0050       1.28330         1        50  
      51           rtu0051       0.20066         1        51  
      52           rtu0052       1.85847         1        52  
      53           rtu0053       2.93979         1        53  
      54           rtu0054       1.55979         1        54  
      55           rtu0055       1.15136         1        55  
      56           rtu0056       0.81832         1        56  
      57           rtu0057       2.02654         1        57  
      58           rtu0058       0.24055         1        58  
      59           rtu0059       1.88737         1        59  
      60           rtu0060       0.55965         1        60  
      61           rtu0061       0.85708         1        61  
      62           rtu0062       1.50920         1        62  
      63           rtu0063       0.45485         1        63  
      64           rtu0064       5.03120         1        64  
      65           rtu0065       4.10431         1        65  
      66           rtu0066       0.81723         1        66  
      67           rtu0067       1.29676         1        67  
      68           rtu0068       0.76996         1        68  
      69           rtu0069       2.41693         1        69  
      70           rtu0070       0.37695         1        70  
      71           rtu0071       5.49663         1        71  
      72           rtu0072       0.62320         1        72  
      73           rtu0073       0.62157         1        73  
      74           rtu0074       0.16600         1        74  
      75           rtu0075       0.82739         1        75  
      76           rtu0076       0.60688         1        76  
      77           rtu0077       0.49861         1        77  
      78           rtu0078       1.35873         1        78  
      79           rtu0079       0.32033         1        79  
      80           rtu0080       0.13996         1        80  
      81           rtu0081       2.92261         1        81  
      82           rtu0082       0.34760         1        82  
      83           rtu0083       2.01075         1        83  
      84           rtu0084       2.27265         1        84  
      85           rtu0085       1.06301         1        85  
      86           rtu0086       1.78400         1        86  
      87           rtu0087       0.94807         1        87  
      88           rtu0088       1.51045         1        88  
      89           rtu0089       0.91753         1        89  
      90           rtu0090       1.29343         1        90  
      91           rtu0091       1.17046         1        91  
      92           rtu0092       2.98164         1        92  
      93           rtu0093       2.07893         1        93  
      94           rtu0094       0.72065         1        94  
      95           rtu0095       3.23770         1        95  
      96           rtu0096       1.61931         1        96  
      97           rtu0097       0.22166         1        97  
      98           rtu0098       0.95212         1        98  
      99           rtu0099       0.67809         1        99  
     100           rtu0100       1.06723         1       100  
     101           rtu0101       0.52754         1       101  
     102           rtu0102       0.99990         1       102  
     103           rtu0103       1.28704         1       103  
     104           rtu0104       5.22407         1       104  
     105           rtu0105       2.57823         1       105  
     106           rtu0106       0.76683         1       106  
     107           rtu0107       2.81604         1       107  
     108           rtu0108       0.65945         1       108  
     109           rtu0109       1.13942         1       109  
     110           rtu0110       0.60873         1       110  
     111           rtu0111       3.57952         1       111  
     112           rtu0112       0.84695         1       112  
     113           rtu0113       1.68401         1       113  
     114           rtu0114       1.32584         1       114  
     115           rtu0115       2.64243         1       115  
     116           rtu0116       0.98735         1       116  
     117           rtu0117       0.78303         1       117  
     118           rtu0118       1.39811         1       118  
     119           rtu0119       1.28205         1       119  
     120           rtu0120       1.68329         1       120  
     121           rtu0121       2.19424         1       121  
     122           rtu0122       1.50568         1       122  
     123           rtu0123       0.78388         1       123  
     124           rtu0124       1.01315         1       124  
     125           rtu0125       3.29500         1       125  
     126           rtu0126       1.91030         1       126  
     127           rtu0127       0.92958         1       127  
     128           rtu0128       1.20017         1       128  
     129           rtu0129       3.13610         1       129  
     130           rtu0130       2.83522         1       130  
     131           rtu0131       1.80948         1       131  
     132           rtu0132       0.85210         1       132  
     133           rtu0133       2.16547         1       133  
     134           rtu0134       3.45109         1       134  
     135           rtu0135       1.19461         1       135  
     136           rtu0136       3.53815         1       136  
     137           rtu0137       3.86177         1       137  
     138           rtu0138       3.85707         1       138  
     139           rtu0139       1.62496         1       139  
     140           rtu0140       1.04288         1       140  
     141           rtu0141       3.02567         1       141  
     142           rtu0142       2.63994         1       142  
     143           rtu0143       4.81639         1       143  
     144           rtu0144       0.00043         1       144  
     145           rtu0145       0.78814         1       145  
     146           rtu0146       3.15027         1       146  
     147           rtu0147       3.24816         1       147  
     148           rtu0148       1.92925         1       148  
     149           rtu0149       2.28962         1       149  
     150           rtu0150       0.64397         1       150  
     151           rtu0151       1.00418         1       151  
     152           rtu0152       2.17428         1       152  
     153           rtu0153       1.59520         1       153  
     154           rtu0154       6.18550         1       154  
     155           rtu0155       3.35811         1       155  
     156           rtu0156       1.52922         1       156  
     157           rtu0157       0.74942         1       157  
     158           rtu0158       1.22507         1       158  
     159           rtu0159       0.90105         1       159  
     160           rtu0160       2.99815         1       160  
     161           rtu0161       1.20553         1       161  
     162           rtu0162       1.18477         1       162  
     163           rtu0163       1.00619         1       163  
     164           rtu0164       1.20744         1       164  
     165           rtu0165       2.12547         1       165  
     166           rtu0166       0.39095         1       166  
     167           rtu0167       5.02899         1       167  
     168           rtu0168       1.58253         1       168  
     169           rtu0169       1.33368         1       169  
     170           rtu0170       0.79065         1       170  
     171           rtu0171       1.00345         1       171  
     172           rtu0172       3.86003         1       172  
     173           rtu0173       5.22676         1       173  
     174           rtu0174       4.16939         1       174  
     175           rtu0175       2.01734         1       175  
     176           rtu0176       0.16533         1       176  
     177           rtu0177       1.33596         1       177  
     178           rtu0178       6.63123         1       178  
     179           rtu0179       1.49163         1       179  
     180           rtu0180       2.87500         1       180  
     181           rtu0181       3.22883         1       181  
     182           rtu0182       1.02557         1       182  
     183           rtu0183       2.34072         1       183  
     184           rtu0184       4.00447         1       184  
     185           rtu0185       2.19819         1       185  
     186           rtu0186       0.93500         1       186  
     187           rtu0187       4.44374         1       187  
     188           rtu0188       3.29735         1       188  
     189           rtu0189       1.83005         1       189  
     190           rtu0190       2.48131         1       190  
     191           rtu0191       1.36809         1       191  
     192           rtu0192       1.85215         1       192  
     193           rtu0193       0.28450         1       193  
     194           rtu0194       1.96449         1       194  
     195           rtu0195       0.61841         1       195  
     196           rtu0196       4.97446         1       196  
     197           rtu0197       1.01963         1       197  
     198           rtu0198       0.15912         1       198  
     199           rtu0199       1.08833         1       199  
     200           rtu0200       2.53906         1       200  
     201           rtu0201       1.14279         1       201  
     202           rtu0202       2.57278         1       202  
     203           rtu0203       1.40155         1       203  
     204           rtu0204       3.87009         1       204  
     205           rtu0205       1.99969         1       205  
     206           rtu0206       0.72159         1       206  
     207           rtu0207       2.12960         1       207  
     208           rtu0208       1.25301         1       208  
     209           rtu0209       4.96523         1       209  
     210           rtu0210       0.53295         1       210  
     211           rtu0211       1.45222         1       211  
     212           rtu0212       0.63170         1       212  
     213           rtu0213       6.02758         1       213  
     214           rtu0214       2.00812         1       214  
     215           rtu0215       1.24319         1       215  
     216           rtu0216       1.71457         1       216  
     217           rtu0217       0.99658         1       217  
     218           rtu0218       1.91769         1       218  
     219           rtu0219       2.28931         1       219  
     220           rtu0220       0.73305         1       220  
     221           rtu0221       1.07628         1       221  
     222           rtu0222       2.60115         1       222  
     223           rtu0223       0.70848         1       223  
     224           rtu0224       1.44054         1       224  
     225           rtu0225       2.58039         1       225  
     226           rtu0226       3.01903         1       226  
     227           rtu0227       2.41234         1       227  
     228           rtu0228       0.44860         1       228  
     229           rtu0229       1.43021         1       229  
     230           rtu0230       0.50444         1       230  
     231           rtu0231       3.30009         1       231  
     232           rtu0232       3.08658         1       232  
     233           rtu0233       0.61353         1       233  
     234           rtu0234       1.73929         1       234  
     235           rtu0235       1.29407         1       235  
     236           rtu0236       1.26081         1       236  
     237           rtu0237       1.02018         1       237  
     238           rtu0238       1.70639         1       238  
     239           rtu0239       2.77851         1       239  
     240           rtu0240       2.29330         1       240  
     241           rtu0241       2.24028         1       241  
     242           rtu0242       0.51848         1       242  
     243           rtu0243       2.80099         1       243  
     244           rtu0244       2.63209         1       244  
     245           rtu0245       0.85938         1       245  
     246           rtu0246       0.32135         1       246  
     247           rtu0247       1.12017         1       247  
     248           rtu0248       0.94916         1       248  
     249           rtu0249       0.60383         1       249  
     250           rtu0250       1.35490         1       250  
     251           rtu0251       0.36389         1       251  
     252           rtu0252       4.08444         1       252  
     253           rtu0253       0.56010         1       253  
     254           rtu0254       2.23363         1       254  
     255           rtu0255       1.01264         1       255  
     256           rtu0256       1.30956         1       256  
     257           rtu0257       2.48879         1       257  
     258           rtu0258       1.00596         1       258  
     259           rtu0259       2.17068         1       259  
     260           rtu0260       1.33677         1       260  
     261           rtu0261       2.96669         1       261  
     262           rtu0262       2.69296         1       262  
     263           rtu0263       2.01533         1       263  
     264           rtu0264       0.65256         1       264  
     265           rtu0265       1.82050         1       265  
     266           rtu0266       1.04419         1       266  
     267           rtu0267       4.37758         1       267  
     268           rtu0268       0.79546         1       268  
     269           rtu0269       2.19521         1       269  
     270           rtu0270       2.53944         1       270  
     271           rtu0271       1.50576         1       271  
     272           rtu0272       1.41365         1       272  
     273           rtu0273       0.96574         1       273  
     274           rtu0274       0.78038         1       274  
     275           rtu0275       1.27599         1       275  
     276           rtu0276       1.28384         1       276  
     277           rtu0277       2.03902         1       277  
     278           rtu0278       0.58335         1       278  
     279           rtu0279       0.29126         1       279  
     280           rtu0280       1.84402         1       280  
     281           rtu0281       2.45753         1       281  
     282           rtu0282       1.80643         1       282  
     283           rtu0283       0.68534         1       283  
     284           rtu0284       1.84802         1       284  
     285           rtu0285       4.08993         1       285  
     286           rtu0286       3.89007         1       286  
     287           rtu0287       1.48539         1       287  
     288           rtu0288       1.73767         1       288  
     289           rtu0289       2.17514         1       289  
     290           rtu0290       0.55839         1       290  
     291           rtu0291       3.80840         1       291  
     292           rtu0292       2.59558         1       292  
     293           rtu0293       2.73577         1       293  
     294           rtu0294       2.38356         1       294  
     295           rtu0295       1.99051         1       295  
     296           rtu0296       0.96827         1       296  
     297           rtu0297       2.33121         1       297  
     298           rtu0298       1.05868         1       298  
     299           rtu0299       0.47475         1       299  
     300           rtu0300       2.07799         1       300  
     301           rtu0301       3.74542         1       301  
     302           rtu0302       3.59917         1       302  
     303           rtu0303       1.12232         1       303  
     304           rtu0304       2.36732         1       304  
     305           rtu0305       2.51850         1       305  
     306           rtu0306       0.93780         1       306  
     307           rtu0307       2.87548         1       307  
     308           rtu0308       2.39639         1       308  
     309           rtu0309       1.90340         1       309  
     310           rtu0310       3.95276         1       310  
     311           rtu0311       3.99669         1       311  
     312           rtu0312       1.24070         1       312  
     313           rtu0313       1.07752         1       313  
     314           rtu0314       1.41827         1       314  
     315           rtu0315       0.69826         1       315  
     316           rtu0316       1.89764         1       316  
     317           rtu0317       6.04083         1       317  
     318           rtu0318       4.19874         1       318  
     319           rtu0319       1.39590         1       319  
     320           rtu0320       0.78842         1       320  
     321           rtu0321       1.89645         1       321  
     322           rtu0322       0.95587         1       322  
     323           rtu0323       0.52892         1       323  
     324           rtu0324       5.20499         1       324  
     325           rtu0325       1.91858         1       325  
     326           rtu0326       1.72589         1       326  
     327           rtu0327       4.59788         1       327  
     328           rtu0328       0.48428         1       328  
     329           rtu0329       1.32060         1       329  
     330           rtu0330       0.56306         1       330  
     331           rtu0331       0.40034         1       331  
     332           rtu0332       2.98598         1       332  
     333           rtu0333       1.20430         1       333  
     334           rtu0334       2.52353         1       334  
     335           rtu0335       2.02075         1       335  
     336           rtu0336       3.60392         1       336  
     337           rtu0337       2.43465         1       337  
     338           rtu0338       1.05654         1       338  
     339           rtu0339       3.67882         1       339  
     340           rtu0340       2.05422         1       340  
     341           rtu0341       1.18901         1       341  
     342           rtu0342       1.66862         1       342  
     343           rtu0343       1.24964         1       343  
     344           rtu0344       1.18831         1       344  
     345           rtu0345       0.74023         1       345  
     346           rtu0346       1.44731         1       346  
     347           rtu0347       2.02903         1       347  
     348           rtu0348       3.06513         1       348  
     349           rtu0349       1.90901         1       349  
     350           rtu0350       3.51219         1       350  
     351           rtu0351       1.01268         1       351  
     352           rtu0352       1.66658         1       352  
     353           rtu0353       2.12627         1       353  
     354           rtu0354       3.19112         1       354  
     355           rtu0355       4.74568         1       355  
     356           rtu0356      12.30670         1       356  
     357           rtu0357       3.37627         1       357  
     358           rtu0358       3.98484         1       358  
     359           rtu0359       5.92414         1       359  
     360           rtu0360       2.59451         1       360  
     361           rtu0361       1.63677         1       361  
     362           rtu0362       2.29967         1       362  
     363           rtu0363       1.35484         1       363  
     364           rtu0364       1.92920         1       364  
     365           rtu0365       1.18900         1       365  
     366           rtu0366       1.75321         1       366  
     367           rtu0367       2.51237         1       367  
     368           rtu0368       3.84802         1       368  
     369           rtu0369       2.21728         1       369  
     370           rtu0370       0.98480         1       370  
     371           rtu0371       0.79777         1       371  
     372           rtu0372       1.31727         1       372  
     373           rtu0373       2.78127         1       373  
     374           rtu0374       1.22189         1       374  
     375           rtu0375       1.48370         1       375  
     376           rtu0376       0.75712         1       376  
     377           rtu0377       3.77067         1       377  
     378           rtu0378       1.69968         1       378  
     379           rtu0379       1.75020         1       379  
     380           rtu0380       1.42444         1       380  
     381           rtu0381       3.41835         1       381  
     382           rtu0382       1.06112         1       382  
     383           rtu0383       1.32112         1       383  
     384           rtu0384       1.81198         1       384  
     385           rtu0385       2.11678         1       385  
     386           rtu0386       1.15388         1       386  
     387           rtu0387       0.10851         1       387  
     388           rtu0388       1.95726         1       388  
     389           rtu0389       3.64279         1       389  
     390           rtu0390       0.99679         1       390  
     391           rtu0391       1.15470         1       391  
     392           rtu0392       1.48526         1       392  
     393           rtu0393       2.52503         1       393  
     394           rtu0394       2.07818         1       394  
     395           rtu0395       1.84494         1       395  
     396           rtu0396       3.30702         1       396  
     397           rtu0397       0.56675         1       397  
     398           rtu0398       0.75810         1       398  
     399           rtu0399       1.80756         1       399  
     400           rtu0400       0.61804         1       400  
     401           rtu0401       0.78970         1       401  
     402           rtu0402       3.06762         1       402  
     403           rtu0403       1.01958         1       403  
     404           rtu0404       2.12382         1       404  
     405           rtu0405       1.02881         1       405  
     406           rtu0406       1.70749         1       406  
     407           rtu0407       2.15763         1       407  
     408           rtu0408       1.31634         1       408  
     409           rtu0409       1.90666         1       409  
     410           rtu0410       1.17004         1       410  
     411           rtu0411       3.03841         1       411  
     412           rtu0412       0.34914         1       412  
     413           rtu0413       1.73039         1       413  
     414           rtu0414       1.79223         1       414  
     415           rtu0415       0.96636         1       415  
     416           rtu0416       1.49656         1       416  
     417           rtu0417       1.60239         1       417  
     418           rtu0418       1.90914         1       418  
     419           rtu0419       2.24877         1       419  
     420           rtu0420       1.89346         1       420  
     421           rtu0421       1.84329         1       421  
     422           rtu0422       2.06235         1       422  
     423           rtu0423       0.34404         1       423  
     424           rtu0424       0.65846         1       424  
     425           rtu0425       0.06788         1       425  
     426           rtu0426       1.25417         1       426  
     427           rtu0427       0.37228         1       427  
     428           rtu0428       0.82878         1       428  
     429           rtu0429       1.69649         1       429  
     430           rtu0430       0.56379         1       430  
     431           rtu0431       3.03249         1       431  
     432           rtu0432       1.28121         1       432  
     433           rtu0433       3.30280         1       433  
     434           rtu0434       2.62601         1       434  
     435           rtu0435       1.56265         1       435  
     436           rtu0436       1.81359         1       436  
     437           rtu0437       2.01280         1       437  
     438           rtu0438       3.06379         1       438  
     439           rtu0439       0.80936         1       439  
     440           rtu0440       3.04813         1       440  
     441           rtu0441       0.78283         1       441  
     442           rtu0442       3.23001         1       442  
     443           rtu0443       0.79272         1       443  
     444           rtu0444       2.98219         1       444  
     445           rtu0445       1.33912         1       445  
     446           rtu0446       1.65290         1       446  
     447           rtu0447       5.07638         1       447  
     448           rtu0448       2.43363         1       448  
     449           rtu0449       2.34152         1       449  
     450           rtu0450       4.03424         1       450  
     451           rtu0451       1.11106         1       451  
     452           rtu0452       1.64888         1       452  
     453           rtu0453       0.11159         1       453  
     454           rtu0454       1.17483         1       454  
     455           rtu0455       1.17664         1       455  
     456           rtu0456       3.57200         1       456  
     457           rtu0457       4.28918         1       457  
     458           rtu0458       3.53391         1       458  
     459           rtu0459       7.70213         1       459  
     460           rtu0460       3.01180         1       460  
     461           rtu0461       0.70727         1       461  
     462           rtu0462       3.53936         1       462  
     463           rtu0463       1.68173         1       463  
     464           rtu0464       1.15336         1       464  
     465           rtu0465       1.34238         1       465  
     466           rtu0466       0.24913         1       466  
     467           rtu0467       1.85309         1       467  
     468           rtu0468       0.98578         1       468  
     469           rtu0469       0.67042         1       469  
     470           rtu0470       4.85037         1       470  
     471           rtu0471       4.07320         1       471  
     472           rtu0472       4.37380         1       472  
     473           rtu0473       2.63940         1       473  