ls_unit.ele: written by SWAT+ editor v2.1.0 on 2024-03-26 18:09 for SWAT+ rev.60.5.4
      id  name                   obj_typ  obj_typ_no      bsn_frac      sub_frac      reg_frac  
       1  hru0001                    hru           1     7.0323E-6       1.00000       0.00000  
       2  hru0002                    hru           2     4.1785E-5       1.00000       0.00000  
       3  hru0003                    hru           3     6.1471E-5       1.00000       0.00000  
       4  hru0004                    hru           4     4.1709E-4       1.00000       0.00000  
       5  hru0005                    hru           5     2.8411E-4       1.00000       0.00000  
       6  hru0006                    hru           6     3.1066E-4       1.00000       0.00000  
       7  hru0007                    hru           7     1.5943E-4       1.00000       0.00000  
       8  hru0008                    hru           8     2.0265E-4       1.00000       0.00000  
       9  hru0009                    hru           9     1.5482E-4       1.00000       0.00000  
      10  hru0010                    hru          10     1.5961E-4       1.00000       0.00000  
      11  hru0011                    hru          11     1.0071E-4       1.00000       0.00000  
      12  hru0012                    hru          12     8.5572E-5       1.00000       0.00000  
      13  hru0013                    hru          13     1.0975E-4       1.00000       0.00000  
      14  hru0014                    hru          14     1.0395E-4       1.00000       0.00000  
      15  hru0015                    hru          15     9.7774E-5       1.00000       0.00000  
      16  hru0016                    hru          16     6.0096E-5       1.00000       0.00000  
      17  hru0017                    hru          17     1.0682E-4       1.00000       0.00000  
      18  hru0018                    hru          18     4.8047E-4       1.00000       0.00000  
      19  hru0019                    hru          19     6.3896E-5       1.00000       0.00000  
      20  hru0020                    hru          20     1.0083E-4       1.00000       0.00000  
      21  hru0021                    hru          21     5.9335E-5       1.00000       0.00000  
      22  hru0022                    hru          22     5.4847E-5       1.00000       0.00000  
      23  hru0023                    hru          23     1.5400E-4       1.00000       0.00000  
      24  hru0024                    hru          24     1.5930E-4       1.00000       0.00000  
      25  hru0025                    hru          25     1.0650E-4       1.00000       0.00000  
      26  hru0026                    hru          26     2.9431E-4       1.00000       0.00000  
      27  hru0027                    hru          27     3.6145E-6       1.00000       0.00000  
      28  hru0028                    hru          28     8.0191E-5       1.00000       0.00000  
      29  hru0029                    hru          29     1.2980E-4       1.00000       0.00000  
      30  hru0030                    hru          30     1.5549E-4       1.00000       0.00000  
      31  hru0031                    hru          31     3.0004E-4       1.00000       0.00000  
      32  hru0032                    hru          32     2.9876E-4       1.00000       0.00000  
      33  hru0033                    hru          33     4.1115E-4       1.00000       0.00000  
      34  hru0034                    hru          34     1.2007E-4       1.00000       0.00000  
      35  hru0035                    hru          35     4.3889E-5       1.00000       0.00000  
      36  hru0036                    hru          36     1.2230E-4       1.00000       0.00000  
      37  hru0037                    hru          37     6.7744E-5       1.00000       0.00000  
      38  hru0038                    hru          38     4.1235E-5       1.00000       0.00000  
      39  hru0039                    hru          39     1.2124E-4       1.00000       0.00000  
      40  hru0040                    hru          40     3.4548E-5       1.00000       0.00000  
      41  hru0041                    hru          41     9.1380E-5       1.00000       0.00000  
      42  hru0042                    hru          42     8.9877E-5       1.00000       0.00000  
      43  hru0043                    hru          43     8.6520E-5       1.00000       0.00000  
      44  hru0044                    hru          44     3.7633E-5       1.00000       0.00000  
      45  hru0045                    hru          45     8.2670E-5       1.00000       0.00000  
      46  hru0046                    hru          46     2.4296E-4       1.00000       0.00000  
      47  hru0047                    hru          47     1.3821E-4       1.00000       0.00000  
      48  hru0048                    hru          48     1.4782E-4       1.00000       0.00000  
      49  hru0049                    hru          49     8.3076E-5       1.00000       0.00000  
      50  hru0050                    hru          50     1.2771E-4       1.00000       0.00000  
      51  hru0051                    hru          51     1.9969E-5       1.00000       0.00000  
      52  hru0052                    hru          52     1.8495E-4       1.00000       0.00000  
      53  hru0053                    hru          53     2.9256E-4       1.00000       0.00000  
      54  hru0054                    hru          54     1.5523E-4       1.00000       0.00000  
      55  hru0055                    hru          55     1.1458E-4       1.00000       0.00000  
      56  hru0056                    hru          56     8.1437E-5       1.00000       0.00000  
      57  hru0057                    hru          57     2.0167E-4       1.00000       0.00000  
      58  hru0058                    hru          58     2.3939E-5       1.00000       0.00000  
      59  hru0059                    hru          59     1.8782E-4       1.00000       0.00000  
      60  hru0060                    hru          60     5.5695E-5       1.00000       0.00000  
      61  hru0061                    hru          61     8.5293E-5       1.00000       0.00000  
      62  hru0062                    hru          62     1.5019E-4       1.00000       0.00000  
      63  hru0063                    hru          63     4.5265E-5       1.00000       0.00000  
      64  hru0064                    hru          64     5.0069E-4       1.00000       0.00000  
      65  hru0065                    hru          65     4.0845E-4       1.00000       0.00000  
      66  hru0066                    hru          66     8.1328E-5       1.00000       0.00000  
      67  hru0067                    hru          67     1.2905E-4       1.00000       0.00000  
      68  hru0068                    hru          68     7.6624E-5       1.00000       0.00000  
      69  hru0069                    hru          69     2.4052E-4       1.00000       0.00000  
      70  hru0070                    hru          70     3.7513E-5       1.00000       0.00000  
      71  hru0071                    hru          71     5.4701E-4       1.00000       0.00000  
      72  hru0072                    hru          72     6.2019E-5       1.00000       0.00000  
      73  hru0073                    hru          73     6.1857E-5       1.00000       0.00000  
      74  hru0074                    hru          74     1.6520E-5       1.00000       0.00000  
      75  hru0075                    hru          75     8.2339E-5       1.00000       0.00000  
      76  hru0076                    hru          76     6.0395E-5       1.00000       0.00000  
      77  hru0077                    hru          77     4.9620E-5       1.00000       0.00000  
      78  hru0078                    hru          78     1.3522E-4       1.00000       0.00000  
      79  hru0079                    hru          79     3.1878E-5       1.00000       0.00000  
      80  hru0080                    hru          80     1.3928E-5       1.00000       0.00000  
      81  hru0081                    hru          81     2.9085E-4       1.00000       0.00000  
      82  hru0082                    hru          82     3.4592E-5       1.00000       0.00000  
      83  hru0083                    hru          83     2.0010E-4       1.00000       0.00000  
      84  hru0084                    hru          84     2.2617E-4       1.00000       0.00000  
      85  hru0085                    hru          85     1.0579E-4       1.00000       0.00000  
      86  hru0086                    hru          86     1.7754E-4       1.00000       0.00000  
      87  hru0087                    hru          87     9.4348E-5       1.00000       0.00000  
      88  hru0088                    hru          88     1.5031E-4       1.00000       0.00000  
      89  hru0089                    hru          89     9.1309E-5       1.00000       0.00000  
      90  hru0090                    hru          90     1.2872E-4       1.00000       0.00000  
      91  hru0091                    hru          91     1.1648E-4       1.00000       0.00000  
      92  hru0092                    hru          92     2.9672E-4       1.00000       0.00000  
      93  hru0093                    hru          93     2.0689E-4       1.00000       0.00000  
      94  hru0094                    hru          94     7.1717E-5       1.00000       0.00000  
      95  hru0095                    hru          95     3.2220E-4       1.00000       0.00000  
      96  hru0096                    hru          96     1.6115E-4       1.00000       0.00000  
      97  hru0097                    hru          97     2.2059E-5       1.00000       0.00000  
      98  hru0098                    hru          98     9.4751E-5       1.00000       0.00000  
      99  hru0099                    hru          99     6.7481E-5       1.00000       0.00000  
     100  hru0100                    hru         100     1.0621E-4       1.00000       0.00000  
     101  hru0101                    hru         101     5.2499E-5       1.00000       0.00000  
     102  hru0102                    hru         102     9.9506E-5       1.00000       0.00000  
     103  hru0103                    hru         103     1.2808E-4       1.00000       0.00000  
     104  hru0104                    hru         104     5.1988E-4       1.00000       0.00000  
     105  hru0105                    hru         105     2.5658E-4       1.00000       0.00000  
     106  hru0106                    hru         106     7.6312E-5       1.00000       0.00000  
     107  hru0107                    hru         107     2.8024E-4       1.00000       0.00000  
     108  hru0108                    hru         108     6.5626E-5       1.00000       0.00000  
     109  hru0109                    hru         109     1.1339E-4       1.00000       0.00000  
     110  hru0110                    hru         110     6.0579E-5       1.00000       0.00000  
     111  hru0111                    hru         111     3.5622E-4       1.00000       0.00000  
     112  hru0112                    hru         112     8.4285E-5       1.00000       0.00000  
     113  hru0113                    hru         113     1.6759E-4       1.00000       0.00000  
     114  hru0114                    hru         114     1.3194E-4       1.00000       0.00000  
     115  hru0115                    hru         115     2.6296E-4       1.00000       0.00000  
     116  hru0116                    hru         116     9.8258E-5       1.00000       0.00000  
     117  hru0117                    hru         117     7.7925E-5       1.00000       0.00000  
     118  hru0118                    hru         118     1.3913E-4       1.00000       0.00000  
     119  hru0119                    hru         119     1.2758E-4       1.00000       0.00000  
     120  hru0120                    hru         120     1.6751E-4       1.00000       0.00000  
     121  hru0121                    hru         121     2.1836E-4       1.00000       0.00000  
     122  hru0122                    hru         122     1.4984E-4       1.00000       0.00000  
     123  hru0123                    hru         123     7.8009E-5       1.00000       0.00000  
     124  hru0124                    hru         124     1.0082E-4       1.00000       0.00000  
     125  hru0125                    hru         125     3.2791E-4       1.00000       0.00000  
     126  hru0126                    hru         126     1.9011E-4       1.00000       0.00000  
     127  hru0127                    hru         127     9.2509E-5       1.00000       0.00000  
     128  hru0128                    hru         128     1.1944E-4       1.00000       0.00000  
     129  hru0129                    hru         129     3.1209E-4       1.00000       0.00000  
     130  hru0130                    hru         130     2.8215E-4       1.00000       0.00000  
     131  hru0131                    hru         131     1.8007E-4       1.00000       0.00000  
     132  hru0132                    hru         132     8.4798E-5       1.00000       0.00000  
     133  hru0133                    hru         133     2.1550E-4       1.00000       0.00000  
     134  hru0134                    hru         134     3.4344E-4       1.00000       0.00000  
     135  hru0135                    hru         135     1.1888E-4       1.00000       0.00000  
     136  hru0136                    hru         136     3.5210E-4       1.00000       0.00000  
     137  hru0137                    hru         137     3.8431E-4       1.00000       0.00000  
     138  hru0138                    hru         138     3.8384E-4       1.00000       0.00000  
     139  hru0139                    hru         139     1.6171E-4       1.00000       0.00000  
     140  hru0140                    hru         140     1.0378E-4       1.00000       0.00000  
     141  hru0141                    hru         141     3.0110E-4       1.00000       0.00000  
     142  hru0142                    hru         142     2.6272E-4       1.00000       0.00000  
     143  hru0143                    hru         143     4.7931E-4       1.00000       0.00000  
     144  hru0144                    hru         144     4.2573E-8       1.00000       0.00000  
     145  hru0145                    hru         145     7.8433E-5       1.00000       0.00000  
     146  hru0146                    hru         146     3.1350E-4       1.00000       0.00000  
     147  hru0147                    hru         147     3.2324E-4       1.00000       0.00000  
     148  hru0148                    hru         148     1.9199E-4       1.00000       0.00000  
     149  hru0149                    hru         149     2.2785E-4       1.00000       0.00000  
     150  hru0150                    hru         150     6.4086E-5       1.00000       0.00000  
     151  hru0151                    hru         151     9.9932E-5       1.00000       0.00000  
     152  hru0152                    hru         152     2.1638E-4       1.00000       0.00000  
     153  hru0153                    hru         153     1.5875E-4       1.00000       0.00000  
     154  hru0154                    hru         154     6.1556E-4       1.00000       0.00000  
     155  hru0155                    hru         155     3.3419E-4       1.00000       0.00000  
     156  hru0156                    hru         156     1.5218E-4       1.00000       0.00000  
     157  hru0157                    hru         157     7.4579E-5       1.00000       0.00000  
     158  hru0158                    hru         158     1.2192E-4       1.00000       0.00000  
     159  hru0159                    hru         159     8.9669E-5       1.00000       0.00000  
     160  hru0160                    hru         160     2.9837E-4       1.00000       0.00000  
     161  hru0161                    hru         161     1.1997E-4       1.00000       0.00000  
     162  hru0162                    hru         162     1.1790E-4       1.00000       0.00000  
     163  hru0163                    hru         163     1.0013E-4       1.00000       0.00000  
     164  hru0164                    hru         164     1.2016E-4       1.00000       0.00000  
     165  hru0165                    hru         165     2.1152E-4       1.00000       0.00000  
     166  hru0166                    hru         166     3.8906E-5       1.00000       0.00000  
     167  hru0167                    hru         167     5.0047E-4       1.00000       0.00000  
     168  hru0168                    hru         168     1.5749E-4       1.00000       0.00000  
     169  hru0169                    hru         169     1.3272E-4       1.00000       0.00000  
     170  hru0170                    hru         170     7.8683E-5       1.00000       0.00000  
     171  hru0171                    hru         171     9.9860E-5       1.00000       0.00000  
     172  hru0172                    hru         172     3.8414E-4       1.00000       0.00000  
     173  hru0173                    hru         173     5.2015E-4       1.00000       0.00000  
     174  hru0174                    hru         174     4.1492E-4       1.00000       0.00000  
     175  hru0175                    hru         175     2.0076E-4       1.00000       0.00000  
     176  hru0176                    hru         176     1.6453E-5       1.00000       0.00000  
     177  hru0177                    hru         177     1.3295E-4       1.00000       0.00000  
     178  hru0178                    hru         178     6.5992E-4       1.00000       0.00000  
     179  hru0179                    hru         179     1.4844E-4       1.00000       0.00000  
     180  hru0180                    hru         180     2.8611E-4       1.00000       0.00000  
     181  hru0181                    hru         181     3.2132E-4       1.00000       0.00000  
     182  hru0182                    hru         182     1.0206E-4       1.00000       0.00000  
     183  hru0183                    hru         183     2.3294E-4       1.00000       0.00000  
     184  hru0184                    hru         184     3.9851E-4       1.00000       0.00000  
     185  hru0185                    hru         185     2.1876E-4       1.00000       0.00000  
     186  hru0186                    hru         186     9.3048E-5       1.00000       0.00000  
     187  hru0187                    hru         187     4.4223E-4       1.00000       0.00000  
     188  hru0188                    hru         188     3.2814E-4       1.00000       0.00000  
     189  hru0189                    hru         189     1.8212E-4       1.00000       0.00000  
     190  hru0190                    hru         190     2.4693E-4       1.00000       0.00000  
     191  hru0191                    hru         191     1.3615E-4       1.00000       0.00000  
     192  hru0192                    hru         192     1.8432E-4       1.00000       0.00000  
     193  hru0193                    hru         193     2.8313E-5       1.00000       0.00000  
     194  hru0194                    hru         194     1.9550E-4       1.00000       0.00000  
     195  hru0195                    hru         195     6.1542E-5       1.00000       0.00000  
     196  hru0196                    hru         196     4.9504E-4       1.00000       0.00000  
     197  hru0197                    hru         197     1.0147E-4       1.00000       0.00000  
     198  hru0198                    hru         198     1.5835E-5       1.00000       0.00000  
     199  hru0199                    hru         199     1.0831E-4       1.00000       0.00000  
     200  hru0200                    hru         200     2.5268E-4       1.00000       0.00000  
     201  hru0201                    hru         201     1.1373E-4       1.00000       0.00000  
     202  hru0202                    hru         202     2.5603E-4       1.00000       0.00000  
     203  hru0203                    hru         203     1.3948E-4       1.00000       0.00000  
     204  hru0204                    hru         204     3.8514E-4       1.00000       0.00000  
     205  hru0205                    hru         205     1.9900E-4       1.00000       0.00000  
     206  hru0206                    hru         206     7.1810E-5       1.00000       0.00000  
     207  hru0207                    hru         207     2.1193E-4       1.00000       0.00000  
     208  hru0208                    hru         208     1.2470E-4       1.00000       0.00000  
     209  hru0209                    hru         209     4.9412E-4       1.00000       0.00000  
     210  hru0210                    hru         210     5.3037E-5       1.00000       0.00000  
     211  hru0211                    hru         211     1.4452E-4       1.00000       0.00000  
     212  hru0212                    hru         212     6.2865E-5       1.00000       0.00000  
     213  hru0213                    hru         213     5.9984E-4       1.00000       0.00000  
     214  hru0214                    hru         214     1.9984E-4       1.00000       0.00000  
     215  hru0215                    hru         215     1.2372E-4       1.00000       0.00000  
     216  hru0216                    hru         216     1.7063E-4       1.00000       0.00000  
     217  hru0217                    hru         217     9.9176E-5       1.00000       0.00000  
     218  hru0218                    hru         218     1.9084E-4       1.00000       0.00000  
     219  hru0219                    hru         219     2.2782E-4       1.00000       0.00000  
     220  hru0220                    hru         220     7.2951E-5       1.00000       0.00000  
     221  hru0221                    hru         221     1.0711E-4       1.00000       0.00000  
     222  hru0222                    hru         222     2.5886E-4       1.00000       0.00000  
     223  hru0223                    hru         223     7.0506E-5       1.00000       0.00000  
     224  hru0224                    hru         224     1.4336E-4       1.00000       0.00000  
     225  hru0225                    hru         225     2.5679E-4       1.00000       0.00000  
     226  hru0226                    hru         226     3.0044E-4       1.00000       0.00000  
     227  hru0227                    hru         227     2.4007E-4       1.00000       0.00000  
     228  hru0228                    hru         228     4.4643E-5       1.00000       0.00000  
     229  hru0229                    hru         229     1.4233E-4       1.00000       0.00000  
     230  hru0230                    hru         230     5.0200E-5       1.00000       0.00000  
     231  hru0231                    hru         231     3.2841E-4       1.00000       0.00000  
     232  hru0232                    hru         232     3.0717E-4       1.00000       0.00000  
     233  hru0233                    hru         233     6.1056E-5       1.00000       0.00000  
     234  hru0234                    hru         234     1.7309E-4       1.00000       0.00000  
     235  hru0235                    hru         235     1.2878E-4       1.00000       0.00000  
     236  hru0236                    hru         236     1.2547E-4       1.00000       0.00000  
     237  hru0237                    hru         237     1.0152E-4       1.00000       0.00000  
     238  hru0238                    hru         238     1.6981E-4       1.00000       0.00000  
     239  hru0239                    hru         239     2.7651E-4       1.00000       0.00000  
     240  hru0240                    hru         240     2.2822E-4       1.00000       0.00000  
     241  hru0241                    hru         241     2.2294E-4       1.00000       0.00000  
     242  hru0242                    hru         242     5.1597E-5       1.00000       0.00000  
     243  hru0243                    hru         243     2.7874E-4       1.00000       0.00000  
     244  hru0244                    hru         244     2.6194E-4       1.00000       0.00000  
     245  hru0245                    hru         245     8.5523E-5       1.00000       0.00000  
     246  hru0246                    hru         246     3.1980E-5       1.00000       0.00000  
     247  hru0247                    hru         247     1.1148E-4       1.00000       0.00000  
     248  hru0248                    hru         248     9.4457E-5       1.00000       0.00000  
     249  hru0249                    hru         249     6.0091E-5       1.00000       0.00000  
     250  hru0250                    hru         250     1.3483E-4       1.00000       0.00000  
     251  hru0251                    hru         251     3.6213E-5       1.00000       0.00000  
     252  hru0252                    hru         252     4.0647E-4       1.00000       0.00000  
     253  hru0253                    hru         253     5.5739E-5       1.00000       0.00000  
     254  hru0254                    hru         254     2.2228E-4       1.00000       0.00000  
     255  hru0255                    hru         255     1.0077E-4       1.00000       0.00000  
     256  hru0256                    hru         256     1.3032E-4       1.00000       0.00000  
     257  hru0257                    hru         257     2.4768E-4       1.00000       0.00000  
     258  hru0258                    hru         258     1.0011E-4       1.00000       0.00000  
     259  hru0259                    hru         259     2.1602E-4       1.00000       0.00000  
     260  hru0260                    hru         260     1.3303E-4       1.00000       0.00000  
     261  hru0261                    hru         261     2.9523E-4       1.00000       0.00000  
     262  hru0262                    hru         262     2.6799E-4       1.00000       0.00000  
     263  hru0263                    hru         263     2.0056E-4       1.00000       0.00000  
     264  hru0264                    hru         264     6.4940E-5       1.00000       0.00000  
     265  hru0265                    hru         265     1.8117E-4       1.00000       0.00000  
     266  hru0266                    hru         266     1.0391E-4       1.00000       0.00000  
     267  hru0267                    hru         267     4.3564E-4       1.00000       0.00000  
     268  hru0268                    hru         268     7.9161E-5       1.00000       0.00000  
     269  hru0269                    hru         269     2.1846E-4       1.00000       0.00000  
     270  hru0270                    hru         270     2.5272E-4       1.00000       0.00000  
     271  hru0271                    hru         271     1.4985E-4       1.00000       0.00000  
     272  hru0272                    hru         272     1.4068E-4       1.00000       0.00000  
     273  hru0273                    hru         273     9.6107E-5       1.00000       0.00000  
     274  hru0274                    hru         274     7.7660E-5       1.00000       0.00000  
     275  hru0275                    hru         275     1.2698E-4       1.00000       0.00000  
     276  hru0276                    hru         276     1.2776E-4       1.00000       0.00000  
     277  hru0277                    hru         277     2.0292E-4       1.00000       0.00000  
     278  hru0278                    hru         278     5.8052E-5       1.00000       0.00000  
     279  hru0279                    hru         279     2.8985E-5       1.00000       0.00000  
     280  hru0280                    hru         280     1.8351E-4       1.00000       0.00000  
     281  hru0281                    hru         281     2.4457E-4       1.00000       0.00000  
     282  hru0282                    hru         282     1.7977E-4       1.00000       0.00000  
     283  hru0283                    hru         283     6.8202E-5       1.00000       0.00000  
     284  hru0284                    hru         284     1.8391E-4       1.00000       0.00000  
     285  hru0285                    hru         285     4.0702E-4       1.00000       0.00000  
     286  hru0286                    hru         286     3.8713E-4       1.00000       0.00000  
     287  hru0287                    hru         287     1.4782E-4       1.00000       0.00000  
     288  hru0288                    hru         288     1.7293E-4       1.00000       0.00000  
     289  hru0289                    hru         289     2.1646E-4       1.00000       0.00000  
     290  hru0290                    hru         290     5.5569E-5       1.00000       0.00000  
     291  hru0291                    hru         291     3.7900E-4       1.00000       0.00000  
     292  hru0292                    hru         292     2.5830E-4       1.00000       0.00000  
     293  hru0293                    hru         293     2.7225E-4       1.00000       0.00000  
     294  hru0294                    hru         294     2.3720E-4       1.00000       0.00000  
     295  hru0295                    hru         295     1.9809E-4       1.00000       0.00000  
     296  hru0296                    hru         296     9.6359E-5       1.00000       0.00000  
     297  hru0297                    hru         297     2.3199E-4       1.00000       0.00000  
     298  hru0298                    hru         298     1.0536E-4       1.00000       0.00000  
     299  hru0299                    hru         299     4.7246E-5       1.00000       0.00000  
     300  hru0300                    hru         300     2.0679E-4       1.00000       0.00000  
     301  hru0301                    hru         301     3.7273E-4       1.00000       0.00000  
     302  hru0302                    hru         302     3.5818E-4       1.00000       0.00000  
     303  hru0303                    hru         303     1.1169E-4       1.00000       0.00000  
     304  hru0304                    hru         304     2.3559E-4       1.00000       0.00000  
     305  hru0305                    hru         305     2.5063E-4       1.00000       0.00000  
     306  hru0306                    hru         306     9.3327E-5       1.00000       0.00000  
     307  hru0307                    hru         307     2.8616E-4       1.00000       0.00000  