object.cnt: written by SWAT+ editor v2.1.0 on 2024-03-26 18:08 for SWAT+ rev.60.5.4
name                   ls_area      tot_area       obj       hru      lhru       rtu       mfl       aqu       cha       res       rec      exco       dlr       can       pmp       out      lcha     aqu2d       hrd       wro  
HAFL_pntsource     10048.58815   10048.58815     16466      8056         0      8056         0         1         0        37         0         2         0         0         0         0       314         0         0         0  
