plant.ini: written by SWAT+ editor v2.1.0 on 2023-10-24 11:53 for SWAT+ rev.60.5.4 and edited with SWATfarmR 2.0.5 on 2024-03-25 11:50:28
pcom_name          plt_cnt  rot_yr_ini          plt_name     lc_status      lai_init       bm_init      phu_init      plnt_pop      yrs_init      rsd_init  
crop_100_comm_86_1       5           1
                                                    canp             y             1          1000             0             0             1          1000
                                                    wwht             n             0             0             0             0             0             0
                                                    sgbt             n             0             0             0             0             0             0
                                                    swht             n             0             0             0             0             0             0
                                                    ryeg             n             0             0             0             0             0             0
crop_101_comm_87_1       5           1
                                                    canp             y             1          1000             0             0             1          1000
                                                    wwht             n             0             0             0             0             0             0
                                                    sgbt             n             0             0             0             0             0             0
                                                    swht             n             0             0             0             0             0             0
                                                    ryeg             n             0             0             0             0             0             0
crop_1024_comm_907_1       6           1
                                                    wwht             y             1          1000             0             0             1          1000
                                                    sunf             n             0             0             0             0             0             0
                                                    pota             n             0             0             0             0             0             0
                                                    canp             n             0             0             0             0             0             0
                                                    sgbt             n             0             0             0             0             0             0
                                                    csil             n             0             0             0             0             0             0
crop_102_comm_88_1       5           1
                                                    canp             y             1          1000             0             0             1          1000
                                                    wwht             n             0             0             0             0             0             0
                                                    sgbt             n             0             0             0             0             0             0
                                                    swht             n             0             0             0             0             0             0
                                                    ryeg             n             0             0             0             0             0             0
crop_103_comm_89_1       5           1
                                                    canp             y             1          1000             0             0             1          1000
                                                    wwht             n             0             0             0             0             0             0
                                                    sgbt             n             0             0             0             0             0             0
                                                    swht             n             0             0             0             0             0             0
                                                    ryeg             n             0             0             0             0             0             0
crop_1045_comm_926_1       5           1
                                                    wwht             y             1          1000             0             0             1          1000
                                                    sgbt             n             0             0             0             0             0             0
                                                    swht             n             0             0             0             0             0             0
                                                    ryeg             n             0             0             0             0             0             0
                                                    sunf             n             0             0             0             0             0             0
crop_104_comm_90_1       5           1
                                                    canp             y             1          1000             0             0             1          1000
                                                    wwht             n             0             0             0             0             0             0
                                                    sgbt             n             0             0             0             0             0             0
                                                    swht             n             0             0             0             0             0             0
                                                    ryeg             n             0             0             0             0             0             0
crop_1056_comm_936_1       5           1
                                                    wwht             y             1          1000             0             0             1          1000
                                                    sgbt             n             0             0             0             0             0             0
                                                    swht             n             0             0             0             0             0             0
                                                    canp             n             0             0             0             0             0             0
                                                    ryeg             n             0             0             0             0             0             0
crop_105_comm_91_1       6           1
                                                    wwht             y             1          1000             0             0             1          1000
                                                    sunf             n             0             0             0             0             0             0
                                                    pota             n             0             0             0             0             0             0
                                                    canp             n             0             0             0             0             0             0
                                                    sgbt             n             0             0             0             0             0             0
                                                    csil             n             0             0             0             0             0             0
crop_1066_comm_945_1       5           1
                                                    canp             y             1          1000             0             0             1          1000
                                                    wwht             n             0             0             0             0             0             0
                                                    sgbt             n             0             0             0             0             0             0
                                                    swht             n             0             0             0             0             0             0
                                                    ryeg             n             0             0             0             0             0             0
crop_106_comm_92_1       5           1
                                                    canp             y             1          1000             0             0             1          1000
                                                    wwht             n             0             0             0             0             0             0
                                                    sgbt             n             0             0             0             0             0             0
                                                    swht             n             0             0             0             0             0             0
                                                    ryeg             n             0             0             0             0             0             0
crop_107_comm_93_1       5           1
                                                    wwht             y             1          1000             0             0             1          1000
                                                    sunf             n             0             0             0             0             0             0
                                                    pota             n             0             0             0             0             0             0
                                                    tobc             n             0             0             0             0             0             0
                                                    ryeg             n             0             0             0             0             0             0
crop_108_comm_94_1       5           1
                                                    wwht             y             1          1000             0             0             1          1000
                                                    sunf             n             0             0             0             0             0             0
                                                    pota             n             0             0             0             0             0             0
                                                    tobc             n             0             0             0             0             0             0
                                                    ryeg             n             0             0             0             0             0             0
crop_1099_comm_976_1       6           1
                                                    wwht             y             1          1000             0             0             1          1000
                                                    sunf             n             0             0             0             0             0             0
                                                    pota             n             0             0             0             0             0             0
                                                    canp             n             0             0             0             0             0             0
                                                    sgbt             n             0             0             0             0             0             0
                                                    csil             n             0             0             0             0             0             0
crop_109_comm_7254_1       5           1
                                                    wwht             y             1          1000             0             0             1          1000
                                                    corn             n             0             0             0             0             0             0
                                                    pota             n             0             0             0             0             0             0
                                                    csil             n             0             0             0             0             0             0
                                                    sgbt             n             0             0             0             0             0             0
crop_109_comm_95_1       5           1
                                                    wwht             y             1          1000             0             0             1          1000
                                                    corn             n             0             0             0             0             0             0
                                                    pota             n             0             0             0             0             0             0
                                                    csil             n             0             0             0             0             0             0
                                                    sgbt             n             0             0             0             0             0             0
crop_10_comm_10_1        5           1
                                                    canp             y             1          1000             0             0             1          1000
                                                    wwht             n             0             0             0             0             0             0
                                                    sgbt             n             0             0             0             0             0             0
                                                    swht             n             0             0             0             0             0             0
                                                    ryeg             n             0             0             0             0             0             0
crop_1110_comm_985_1       6           1
                                                    wwht             y             1          1000             0             0             1          1000
                                                    sunf             n             0             0             0             0             0             0
                                                    pota             n             0             0             0             0             0             0
                                                    canp             n             0             0             0             0             0             0
                                                    sgbt             n             0             0             0             0             0             0
                                                    csil             n             0             0             0             0             0             0
crop_1116_comm_991_1       6           1
                                                    wwht             y             1          1000             0             0             1          1000
                                                    sunf             n             0             0             0             0             0             0
                                                    pota             n             0             0             0             0             0             0
                                                    canp             n             0             0             0             0             0             0
                                                    sgbt             n             0             0             0             0             0             0
                                                    csil             n             0             0             0             0             0             0
crop_1125_comm_998_1       6           1
                                                    wwht             y             1          1000             0             0             1          1000
                                                    sunf             n             0             0             0             0             0             0
                                                    pota             n             0             0             0             0             0             0
                                                    canp             n             0             0             0             0             0             0
                                                    sgbt             n             0             0             0             0             0             0
                                                    csil             n             0             0             0             0             0             0
crop_1143_comm_1014_1       6           1
                                                    wwht             y             1          1000             0             0             1          1000
                                                    sunf             n             0             0             0             0             0             0
                                                    pota             n             0             0             0             0             0             0
                                                    canp             n             0             0             0             0             0             0
                                                    sgbt             n             0             0             0             0             0             0
                                                    csil             n             0             0             0             0             0             0
crop_1150_comm_1019_1       5           1
                                                    canp             y             1          1000             0             0             1          1000
                                                    wwht             n             0             0             0             0             0             0
                                                    sgbt             n             0             0             0             0             0             0
                                                    swht             n             0             0             0             0             0             0
                                                    ryeg             n             0             0             0             0             0             0
crop_1152_drn_comm_1021_1       6           1
                                                    wwht             y             1          1000             0             0             1          1000
                                                    sgbt             n             0             0             0             0             0             0
                                                    swht             n             0             0             0             0             0             0
                                                    pota             n             0             0             0             0             0             0
                                                    peas             n             0             0             0             0             0             0
                                                    canp             n             0             0             0             0             0             0
crop_1153_drn_comm_1022_1       5           1
                                                    wwht             y             1          1000             0             0             1          1000
                                                    sgbt             n             0             0             0             0             0             0
                                                    corn             n             0             0             0             0             0             0
                                                    csil             n             0             0             0             0             0             0
                                                    tobc             n             0             0             0             0             0             0
crop_1154_drn_comm_1023_1       4           1
                                                    wwht             y             1          1000             0             0             1          1000
                                                    sgbt             n             0             0             0             0             0             0
                                                    corn             n             0             0             0             0             0             0
                                                    csil             n             0             0             0             0             0             0
crop_1155_drn_comm_1024_1       5           1
                                                    wwht             y             1          1000             0             0             1          1000
                                                    sgbt             n             0             0             0             0             0             0
                                                    corn             n             0             0             0             0             0             0
                                                    csil             n             0             0             0             0             0             0
                                                    tobc             n             0             0             0             0             0             0
crop_1156_drn_comm_1025_1       6           1
                                                    wwht             y             1          1000             0             0             1          1000
                                                    sgbt             n             0             0             0             0             0             0
                                                    swht             n             0             0             0             0             0             0
                                                    ryeg             n             0             0             0             0             0             0
                                                    peas             n             0             0             0             0             0             0
                                                    canp             n             0             0             0             0             0             0
crop_1157_drn_comm_1026_1       6           1
                                                    wwht             y             1          1000             0             0             1          1000
                                                    sunf             n             0             0             0             0             0             0
                                                    pota             n             0             0             0             0             0             0
                                                    canp             n             0             0             0             0             0             0
                                                    sgbt             n             0             0             0             0             0             0
                                                    csil             n             0             0             0             0             0             0
crop_1158_comm_1027_1       5           1
                                                    wwht             y             1          1000             0             0             1          1000
                                                    sgbt             n             0             0             0             0             0             0
                                                    swht             n             0             0             0             0             0             0
                                                    canp             n             0             0             0             0             0             0
                                                    ryeg             n             0             0             0             0             0             0
crop_1159_drn_comm_1028_1       6           1
                                                    wwht             y             1          1000             0             0             1          1000
                                                    sgbt             n             0             0             0             0             0             0
                                                    swht             n             0             0             0             0             0             0
                                                    pota             n             0             0             0             0             0             0
                                                    sunf             n             0             0             0             0             0             0
                                                    canp             n             0             0             0             0             0             0
crop_1160_comm_1029_1       6           1
                                                    wwht             y             1          1000             0             0             1          1000
                                                    sunf             n             0             0             0             0             0             0
                                                    pota             n             0             0             0             0             0             0
                                                    canp             n             0             0             0             0             0             0
                                                    sgbt             n             0             0             0             0             0             0
                                                    csil             n             0             0             0             0             0             0
crop_1161_comm_1030_1       4           1
                                                    wwht             y             1          1000             0             0             1          1000
                                                    sgbt             n             0             0             0             0             0             0
                                                    corn             n             0             0             0             0             0             0
                                                    csil             n             0             0             0             0             0             0
crop_1162_comm_1031_1       5           1
                                                    wwht             y             1          1000             0             0             1          1000
                                                    sgbt             n             0             0             0             0             0             0
                                                    corn             n             0             0             0             0             0             0
                                                    csil             n             0             0             0             0             0             0
                                                    tobc             n             0             0             0             0             0             0
crop_1163_comm_1032_1       4           1
                                                    wwht             y             1          1000             0             0             1          1000
                                                    sgbt             n             0             0             0             0             0             0
                                                    corn             n             0             0             0             0             0             0
                                                    csil             n             0             0             0             0             0             0
crop_1164_comm_1033_1       4           1
                                                    wwht             y             1          1000             0             0             1          1000
                                                    sgbt             n             0             0             0             0             0             0
                                                    corn             n             0             0             0             0             0             0