reservoir.con: written by SWAT+ editor v2.1.0 on 2024-03-26 18:09 for SWAT+ rev.60.5.4
      id  name                gis_id          area           lat           lon          elev       res               wst       cst      ovfl      rule   out_tot       obj_typ    obj_id       hyd_typ          frac  
       1  res01                    0       0.11003      46.73483       6.77008     709.06121         1       s46817n695e         0         0         0         1           sdc       305           tot       1.00000  
       2  res02                    0       0.05216      46.73504       6.77040     707.94830         2       s46817n695e         0         0         0         1           sdc       306           tot       1.00000  
       3  res03                    0       0.12729      46.73480       6.76932     710.49463         3       s46817n695e         0         0         0         1           sdc       304           tot       1.00000  
       4  res04                    0       0.04301      46.73509       6.77104     707.26458         4       s46817n695e         0         0         0         1           sdc       307           tot       1.00000  
       5  res05                    0       0.14272      46.73489       6.76870     712.32220         5       s46817n695e         0         0         0         1           sdc       293           tot       1.00000  
       6  res06                    0       0.07500      46.73535       6.77531     706.50036         6       s46817n695e         0         0         0         1           sdc       314           tot       1.00000  
       7  res07                    0       0.08783      46.73599       6.77277     702.59308         7       s46817n695e         0         0         0         1           sdc       104           tot       1.00000  
       8  res08                    0       0.02159      46.73646       6.77369     699.30700         8       s46817n695e         0         0         0         1           sdc       177           tot       1.00000  
       9  res09                    0       0.03081      46.73664       6.77411     698.65509         9       s46817n695e         0         0         0         1           sdc       178           tot       1.00000  
      10  res10                    0       0.02464      46.73710       6.77491     695.94878        10       s46817n695e         0         0         0         1           sdc       180           tot       1.00000  
      11  res11                    0       0.02728      46.73737       6.77537     695.09937        11       s46817n695e         0         0         0         1           sdc       181           tot       1.00000  
      12  res12                    0       0.05748      46.73767       6.77593     693.94230        12       s46817n695e         0         0         0         1           sdc       103           tot       1.00000  
      13  res13                    0       0.18448      46.73795       6.77670     692.90155        13       s46817n695e         0         0         0         1           sdc       287           tot       1.00000  
      14  res14                    0       0.65698      46.74109       6.77865     687.82560        14       s46817n695e         0         0         0         1           sdc       295           tot       1.00000  
      15  res15                    0       0.27111      46.74155       6.77786     685.44872        15       s46817n695e         0         0         0         1           sdc       310           tot       1.00000  
      16  res16                    0       0.02401      46.74189       6.77647     684.85430        16       s46817n695e         0         0         0         1           sdc       294           tot       1.00000  
      17  res17                    0       0.14050      46.74176       6.77717     685.56176        17       s46817n695e         0         0         0         1           sdc       309           tot       1.00000  
      18  res18                    0       0.06174      46.74196       6.77919     686.02557        18       s46817n695e         0         0         0         1           sdc       311           tot       1.00000  
      19  res19                    0       0.05907      46.74228       6.77873     684.52038        19       s46817n695e         0         0         0         1           sdc       298           tot       1.00000  
      20  res20                    0       0.02691      46.74259       6.77833     683.60583        20       s46817n695e         0         0         0         1           sdc       297           tot       1.00000  
      21  res21                    0       0.04520      46.75200       6.78777     659.80425        21       s46817n695e         0         0         0         1           sdc       302           tot       1.00000  
      22  res22                    0       0.04966      46.75229       6.78804     659.33050        22       s46817n695e         0         0         0         1           sdc       303           tot       1.00000  
      23  res23                    0       0.05823      46.78228       6.78546     659.98702        23       s46817n695e         0         0         0         1           sdc       290           tot       1.00000  
      24  res24                    0       0.23471      46.78279       6.78632     659.98690        24       s46817n695e         0         0         0         1           sdc       291           tot       1.00000  
      25  res25                    0       0.02166      46.80602       6.87024     514.82014        25       s46817n695e         0         0         0         0  
      26  res26                    0       0.09036      46.82077       6.90843     446.94149        26       s46817n695e         0         0         0         0  
      27  res27                    0       0.11070      46.82760       6.84427     495.61282        27       s46817n695e         0         0         0         0  
      28  res28                    0       0.07855      46.82799       6.90806     446.55374        28       s46817n695e         0         0         0         0  
      29  res29                    0       0.26646      46.82790       6.90713     446.85545        29       s46817n695e         0         0         0         0  
      30  res30                    0       0.01977      46.83178       6.87495     476.34435        30       s46817n695e         0         0         0         0  
      31  res31                    0       0.24101      46.83214       6.90808     444.97749        31       s46817n695e         0         0         0         0  
      32  res32                    0       0.42871      46.85965       6.93196     442.76498        32       s46817n695e         0         0         0         1           sdc       158           tot       1.00000  
      33  res33                    0       0.02384      46.87869       6.94230     482.86982        33       s46817n695e         0         0         0         0  
      34  res34                    0       1.16232      46.88496       6.94596     474.27284        34       s46817n695e         0         0         0         0  
      35  res35                    0       0.04176      46.88661       6.99263     435.31363        35       s46817n695e         0         0         0         0  
      36  res36                    0       0.08860      46.88716       6.99163     435.31322        36       s46817n695e         0         0         0         0  
      37  res37                    0       0.16071      46.88779       6.99044     435.31313        37       s46817n695e         0         0         0         0  
