time.sim: written by SWAT+ editor v2.1.0 on 2023-10-23 14:47 for SWAT+ rev.60.5.4 and edited with SWATfarmR 2.0.5 on 2024-03-25 11:51:40
day_start  yrc_start   day_end   yrc_end      step  
        0       1988         0      2020         0
