topography.hyd: written by SWAT+ editor v2.1.0 on 2024-03-26 18:09 for SWAT+ rev.60.5.4
name                       slp       slp_len       lat_len      dist_cha         depos  
topohru0001            0.14887      30.00000      30.00000     121.00000       0.00000  
topohru0002            0.07244      30.00000      30.00000     121.00000       0.00000  
topohru0003            0.10651      30.00000      30.00000     121.00000       0.00000  
topohru0004            0.01394      30.00000      30.00000     121.00000       0.00000  
topohru0005            0.01301      30.00000      30.00000     121.00000       0.00000  
topohru0006            0.00669      30.00000      30.00000     121.00000       0.00000  
topohru0007            0.00582      30.00000      30.00000     121.00000       0.00000  
topohru0008            0.09777      30.00000      30.00000     121.00000       0.00000  
topohru0009            0.07009      30.00000      30.00000     121.00000       0.00000  
topohru0010            0.00100      30.00000      30.00000     121.00000       0.00000  
topohru0011            0.02279      30.00000      30.00000     121.00000       0.00000  
topohru0012            0.01202      30.00000      30.00000     121.00000       0.00000  
topohru0013            0.05585      30.00000      30.00000     121.00000       0.00000  
topohru0014            0.06134      30.00000      30.00000     121.00000       0.00000  
topohru0015            0.14674      30.00000      30.00000     121.00000       0.00000  
topohru0016            0.00754      30.00000      30.00000     121.00000       0.00000  
topohru0017            0.07358      30.00000      30.00000     121.00000       0.00000  
topohru0018            0.03413      30.00000      30.00000     121.00000       0.00000  
topohru0019            0.14309      30.00000      30.00000     121.00000       0.00000  
topohru0020            0.06744      30.00000      30.00000     121.00000       0.00000  
topohru0021            0.08614      30.00000      30.00000     121.00000       0.00000  
topohru0022            0.00929      30.00000      30.00000     121.00000       0.00000  
topohru0023            0.05238      30.00000      30.00000     121.00000       0.00000  
topohru0024            0.00000      30.00000      30.00000     121.00000       0.00000  
topohru0025            0.08260      30.00000      30.00000     121.00000       0.00000  
topohru0026            0.00785      30.00000      30.00000     121.00000       0.00000  
topohru0027            0.04698      30.00000      30.00000     121.00000       0.00000  
topohru0028            0.06339      30.00000      30.00000     121.00000       0.00000  
topohru0029            0.10440      30.00000      30.00000     121.00000       0.00000  
topohru0030            0.09539      30.00000      30.00000     121.00000       0.00000  
topohru0031            0.01979      30.00000      30.00000     121.00000       0.00000  
topohru0032            0.00939      30.00000      30.00000     121.00000       0.00000  
topohru0033            0.04804      30.00000      30.00000     121.00000       0.00000  
topohru0034            0.04019      30.00000      30.00000     121.00000       0.00000  
topohru0035            0.20017      30.00000      30.00000     121.00000       0.00000  
topohru0036            0.09515      30.00000      30.00000     121.00000       0.00000  
topohru0037            0.11235      30.00000      30.00000     121.00000       0.00000  
topohru0038            0.12196      30.00000      30.00000     121.00000       0.00000  
topohru0039            0.17392      30.00000      30.00000     121.00000       0.00000  
topohru0040            0.05166      30.00000      30.00000     121.00000       0.00000  
topohru0041            0.03954      30.00000      30.00000     121.00000       0.00000  
topohru0042            0.12992      30.00000      30.00000     121.00000       0.00000  
topohru0043            0.12086      30.00000      30.00000     121.00000       0.00000  
topohru0044            0.11943      30.00000      30.00000     121.00000       0.00000  
topohru0045            0.07577      30.00000      30.00000     121.00000       0.00000  
topohru0046            0.04151      30.00000      30.00000     121.00000       0.00000  
topohru0047            0.02863      30.00000      30.00000     121.00000       0.00000  
topohru0048            0.03241      30.00000      30.00000     121.00000       0.00000  
topohru0049            0.06951      30.00000      30.00000     121.00000       0.00000  
topohru0050            0.06509      30.00000      30.00000     121.00000       0.00000  
topohru0051            0.19737      30.00000      30.00000     121.00000       0.00000  
topohru0052            0.03426      30.00000      30.00000     121.00000       0.00000  
topohru0053            0.03244      30.00000      30.00000     121.00000       0.00000  
topohru0054            0.01745      30.00000      30.00000     121.00000       0.00000  
topohru0055            0.05385      30.00000      30.00000     121.00000       0.00000  
topohru0056            0.18339      30.00000      30.00000     121.00000       0.00000  
topohru0057            0.01060      30.00000      30.00000     121.00000       0.00000  
topohru0058            0.03512      30.00000      30.00000     121.00000       0.00000  
topohru0059            0.08096      30.00000      30.00000     121.00000       0.00000  
topohru0060            0.00940      30.00000      30.00000     121.00000       0.00000  
topohru0061            0.16487      30.00000      30.00000     121.00000       0.00000  
topohru0062            0.03889      30.00000      30.00000     121.00000       0.00000  
topohru0063            0.08639      30.00000      30.00000     121.00000       0.00000  
topohru0064            0.00919      30.00000      30.00000     121.00000       0.00000  
topohru0065            0.00950      30.00000      30.00000     121.00000       0.00000  
topohru0066            0.16970      30.00000      30.00000     121.00000       0.00000  
topohru0067            0.01020      30.00000      30.00000     121.00000       0.00000  
topohru0068            0.01203      30.00000      30.00000     121.00000       0.00000  
topohru0069            0.00358      30.00000      30.00000     121.00000       0.00000  
topohru0070            0.15662      30.00000      30.00000     121.00000       0.00000  
topohru0071            0.01167      30.00000      30.00000     121.00000       0.00000  
topohru0072            0.13333      30.00000      30.00000     121.00000       0.00000  
topohru0073            0.01972      30.00000      30.00000     121.00000       0.00000  
topohru0074            0.12956      30.00000      30.00000     121.00000       0.00000  
topohru0075            0.06162      30.00000      30.00000     121.00000       0.00000  
topohru0076            0.10549      30.00000      30.00000     121.00000       0.00000  
topohru0077            0.09216      30.00000      30.00000     121.00000       0.00000  
topohru0078            0.00869      30.00000      30.00000     121.00000       0.00000  
topohru0079            0.11817      30.00000      30.00000     121.00000       0.00000  
topohru0080            0.13786      30.00000      30.00000     121.00000       0.00000  
topohru0081            0.06594      30.00000      30.00000     121.00000       0.00000  
topohru0082            0.10626      30.00000      30.00000     121.00000       0.00000  
topohru0083            0.08142      30.00000      30.00000     121.00000       0.00000  
topohru0084            0.03577      30.00000      30.00000     121.00000       0.00000  
topohru0085            0.05814      30.00000      30.00000     121.00000       0.00000  
topohru0086            0.05897      30.00000      30.00000     121.00000       0.00000  
topohru0087            0.06208      30.00000      30.00000     121.00000       0.00000  
topohru0088            0.04960      30.00000      30.00000     121.00000       0.00000  
topohru0089            0.14629      30.00000      30.00000     121.00000       0.00000  
topohru0090            0.04826      30.00000      30.00000     121.00000       0.00000  
topohru0091            0.02901      30.00000      30.00000     121.00000       0.00000  
topohru0092            0.00853      30.00000      30.00000     121.00000       0.00000  
topohru0093            0.03840      30.00000      30.00000     121.00000       0.00000  
topohru0094            0.08341      30.00000      30.00000     121.00000       0.00000  
topohru0095            0.01863      30.00000      30.00000     121.00000       0.00000  
topohru0096            0.07937      30.00000      30.00000     121.00000       0.00000  
topohru0097            0.14470      30.00000      30.00000     121.00000       0.00000  
topohru0098            0.05310      30.00000      30.00000     121.00000       0.00000  
topohru0099            0.04208      30.00000      30.00000     121.00000       0.00000  
topohru0100            0.03006      30.00000      30.00000     121.00000       0.00000  
topohru0101            0.00957      30.00000      30.00000     121.00000       0.00000  
topohru0102            0.00671      30.00000      30.00000     121.00000       0.00000  
topohru0103            0.07749      30.00000      30.00000     121.00000       0.00000  
topohru0104            0.02664      30.00000      30.00000     121.00000       0.00000  
topohru0105            0.00611      30.00000      30.00000     121.00000       0.00000  
topohru0106            0.03277      30.00000      30.00000     121.00000       0.00000  
topohru0107            0.08987      30.00000      30.00000     121.00000       0.00000  
topohru0108            0.08012      30.00000      30.00000     121.00000       0.00000  
topohru0109            0.00321      30.00000      30.00000     121.00000       0.00000  
topohru0110            0.10685      30.00000      30.00000     121.00000       0.00000  
topohru0111            0.01900      30.00000      30.00000     121.00000       0.00000  
topohru0112            0.04943      30.00000      30.00000     121.00000       0.00000  
topohru0113            0.12417      30.00000      30.00000     121.00000       0.00000  
topohru0114            0.05522      30.00000      30.00000     121.00000       0.00000  
topohru0115            0.04007      30.00000      30.00000     121.00000       0.00000  
topohru0116            0.12810      30.00000      30.00000     121.00000       0.00000  
topohru0117            0.07647      30.00000      30.00000     121.00000       0.00000  
topohru0118            0.04521      30.00000      30.00000     121.00000       0.00000  
topohru0119            0.01642      30.00000      30.00000     121.00000       0.00000  
topohru0120            0.06480      30.00000      30.00000     121.00000       0.00000  
topohru0121            0.02986      30.00000      30.00000     121.00000       0.00000  
topohru0122            0.04131      30.00000      30.00000     121.00000       0.00000  
topohru0123            0.06932      30.00000      30.00000     121.00000       0.00000  
topohru0124            0.03101      30.00000      30.00000     121.00000       0.00000  
topohru0125            0.02555      30.00000      30.00000     121.00000       0.00000  
topohru0126            0.02052      30.00000      30.00000     121.00000       0.00000  
topohru0127            0.05014      30.00000      30.00000     121.00000       0.00000  
topohru0128            0.01613      30.00000      30.00000     121.00000       0.00000  
topohru0129            0.02553      30.00000      30.00000     121.00000       0.00000  
topohru0130            0.01847      30.00000      30.00000     121.00000       0.00000  
topohru0131            0.02052      30.00000      30.00000     121.00000       0.00000  
topohru0132            0.06665      30.00000      30.00000     121.00000       0.00000  
topohru0133            0.02367      30.00000      30.00000     121.00000       0.00000  
topohru0134            0.08631      30.00000      30.00000     121.00000       0.00000  
topohru0135            0.08153      30.00000      30.00000     121.00000       0.00000  
topohru0136            0.01764      30.00000      30.00000     121.00000       0.00000  
topohru0137            0.06191      30.00000      30.00000     121.00000       0.00000  
topohru0138            0.01719      30.00000      30.00000     121.00000       0.00000  
topohru0139            0.05726      30.00000      30.00000     121.00000       0.00000  
topohru0140            0.08963      30.00000      30.00000     121.00000       0.00000  
topohru0141            0.05309      30.00000      30.00000     121.00000       0.00000  
topohru0142            0.04672      30.00000      30.00000     121.00000       0.00000  
topohru0143            0.05087      30.00000      30.00000     121.00000       0.00000  
topohru0144            0.00500      30.00000      30.00000     121.00000       0.00000  
topohru0145            0.01447      30.00000      30.00000     121.00000       0.00000  
topohru0146            0.07258      30.00000      30.00000     121.00000       0.00000  
topohru0147            0.05828      30.00000      30.00000     121.00000       0.00000  
topohru0148            0.08118      30.00000      30.00000     121.00000       0.00000  
topohru0149            0.00841      30.00000      30.00000     121.00000       0.00000  
topohru0150            0.03876      30.00000      30.00000     121.00000       0.00000  
topohru0151            0.04803      30.00000      30.00000     121.00000       0.00000  
topohru0152            0.06546      30.00000      30.00000     121.00000       0.00000  
topohru0153            0.08445      30.00000      30.00000     121.00000       0.00000  
topohru0154            0.01968      30.00000      30.00000     121.00000       0.00000  
topohru0155            0.10324      30.00000      30.00000     121.00000       0.00000  
topohru0156            0.04395      30.00000      30.00000     121.00000       0.00000  
topohru0157            0.01767      30.00000      30.00000     121.00000       0.00000  
topohru0158            0.08390      30.00000      30.00000     121.00000       0.00000  
topohru0159            0.01831      30.00000      30.00000     121.00000       0.00000  
topohru0160            0.01289      30.00000      30.00000     121.00000       0.00000  
topohru0161            0.04469      30.00000      30.00000     121.00000       0.00000  
topohru0162            0.10342      30.00000      30.00000     121.00000       0.00000  
topohru0163            0.00442      30.00000      30.00000     121.00000       0.00000  
topohru0164            0.03886      30.00000      30.00000     121.00000       0.00000  
topohru0165            0.08224      30.00000      30.00000     121.00000       0.00000  
topohru0166            0.08325      30.00000      30.00000     121.00000       0.00000  
topohru0167            0.06157      30.00000      30.00000     121.00000       0.00000  
topohru0168            0.10551      30.00000      30.00000     121.00000       0.00000  
topohru0169            0.01511      30.00000      30.00000     121.00000       0.00000  
topohru0170            0.14044      30.00000      30.00000     121.00000       0.00000  
topohru0171            0.07831      30.00000      30.00000     121.00000       0.00000  
topohru0172            0.03625      30.00000      30.00000     121.00000       0.00000  
topohru0173            0.00942      30.00000      30.00000     121.00000       0.00000  
topohru0174            0.00414      30.00000      30.00000     121.00000       0.00000  
topohru0175            0.03357      30.00000      30.00000     121.00000       0.00000  
topohru0176            0.02566      30.00000      30.00000     121.00000       0.00000  
topohru0177            0.07511      30.00000      30.00000     121.00000       0.00000  
topohru0178            0.04585      30.00000      30.00000     121.00000       0.00000  
topohru0179            0.05688      30.00000      30.00000     121.00000       0.00000  
topohru0180            0.02517      30.00000      30.00000     121.00000       0.00000  
topohru0181            0.06463      30.00000      30.00000     121.00000       0.00000  
topohru0182            0.03825      30.00000      30.00000     121.00000       0.00000  
topohru0183            0.12465      30.00000      30.00000     121.00000       0.00000  
topohru0184            0.06137      30.00000      30.00000     121.00000       0.00000  
topohru0185            0.01752      30.00000      30.00000     121.00000       0.00000  
topohru0186            0.07670      30.00000      30.00000     121.00000       0.00000  
topohru0187            0.04939      30.00000      30.00000     121.00000       0.00000  
topohru0188            0.10042      30.00000      30.00000     121.00000       0.00000  
topohru0189            0.02222      30.00000      30.00000     121.00000       0.00000  
topohru0190            0.07104      30.00000      30.00000     121.00000       0.00000  
topohru0191            0.07383      30.00000      30.00000     121.00000       0.00000  
topohru0192            0.10328      30.00000      30.00000     121.00000       0.00000  
topohru0193            0.07819      30.00000      30.00000     121.00000       0.00000  
topohru0194            0.07291      30.00000      30.00000     121.00000       0.00000  
topohru0195            0.02898      30.00000      30.00000     121.00000       0.00000  
topohru0196            0.03935      30.00000      30.00000     121.00000       0.00000  
topohru0197            0.13867      30.00000      30.00000     121.00000       0.00000  
topohru0198            0.07571      30.00000      30.00000     121.00000       0.00000  
topohru0199            0.04228      30.00000      30.00000     121.00000       0.00000  
topohru0200            0.05330      30.00000      30.00000     121.00000       0.00000  
topohru0201            0.06519      30.00000      30.00000     121.00000       0.00000  
topohru0202            0.05114      30.00000      30.00000     121.00000       0.00000  
topohru0203            0.02209      30.00000      30.00000     121.00000       0.00000  
topohru0204            0.12148      30.00000      30.00000     121.00000       0.00000  
topohru0205            0.10776      30.00000      30.00000     121.00000       0.00000  
topohru0206            0.19672      30.00000      30.00000     121.00000       0.00000  
topohru0207            0.03199      30.00000      30.00000     121.00000       0.00000  
topohru0208            0.02288      30.00000      30.00000     121.00000       0.00000  
topohru0209            0.07740      30.00000      30.00000     121.00000       0.00000  
topohru0210            0.09893      30.00000      30.00000     121.00000       0.00000  
topohru0211            0.09558      30.00000      30.00000     121.00000       0.00000  
topohru0212            0.02393      30.00000      30.00000     121.00000       0.00000  
topohru0213            0.04980      30.00000      30.00000     121.00000       0.00000  
topohru0214            0.03124      30.00000      30.00000     121.00000       0.00000  
topohru0215            0.05107      30.00000      30.00000     121.00000       0.00000  
topohru0216            0.16411      30.00000      30.00000     121.00000       0.00000  
topohru0217            0.11188      30.00000      30.00000     121.00000       0.00000  
topohru0218            0.14540      30.00000      30.00000     121.00000       0.00000  
topohru0219            0.05732      30.00000      30.00000     121.00000       0.00000  
topohru0220            0.12978      30.00000      30.00000     121.00000       0.00000  
topohru0221            0.16126      30.00000      30.00000     121.00000       0.00000  
topohru0222            0.03754      30.00000      30.00000     121.00000       0.00000  
topohru0223            0.10632      30.00000      30.00000     121.00000       0.00000  
topohru0224            0.10238      30.00000      30.00000     121.00000       0.00000  
topohru0225            0.07676      30.00000      30.00000     121.00000       0.00000  
topohru0226            0.00670      30.00000      30.00000     121.00000       0.00000  
topohru0227            0.08527      30.00000      30.00000     121.00000       0.00000  
topohru0228            0.17295      30.00000      30.00000     121.00000       0.00000  
topohru0229            0.02296      30.00000      30.00000     121.00000       0.00000  
topohru0230            0.00104      30.00000      30.00000     121.00000       0.00000  
topohru0231            0.03246      30.00000      30.00000     121.00000       0.00000  
topohru0232            0.08533      30.00000      30.00000     121.00000       0.00000  
topohru0233            0.03428      30.00000      30.00000     121.00000       0.00000  
topohru0234            0.07710      30.00000      30.00000     121.00000       0.00000  
topohru0235            0.03443      30.00000      30.00000     121.00000       0.00000  
topohru0236            0.04496      30.00000      30.00000     121.00000       0.00000  
topohru0237            0.07914      30.00000      30.00000     121.00000       0.00000  
topohru0238            0.10152      30.00000      30.00000     121.00000       0.00000  
topohru0239            0.08572      30.00000      30.00000     121.00000       0.00000  
topohru0240            0.14994      30.00000      30.00000     121.00000       0.00000  
topohru0241            0.07260      30.00000      30.00000     121.00000       0.00000  
topohru0242            0.14186      30.00000      30.00000     121.00000       0.00000  
topohru0243            0.05829      30.00000      30.00000     121.00000       0.00000  
topohru0244            0.11231      30.00000      30.00000     121.00000       0.00000  
topohru0245            0.02610      30.00000      30.00000     121.00000       0.00000  
topohru0246            0.01864      30.00000      30.00000     121.00000       0.00000  
topohru0247            0.04092      30.00000      30.00000     121.00000       0.00000  
topohru0248            0.08438      30.00000      30.00000     121.00000       0.00000  
topohru0249            0.05523      30.00000      30.00000     121.00000       0.00000  
topohru0250            0.02503      30.00000      30.00000     121.00000       0.00000  
topohru0251            0.01680      30.00000      30.00000     121.00000       0.00000  
topohru0252            0.07850      30.00000      30.00000     121.00000       0.00000  
topohru0253            0.02476      30.00000      30.00000     121.00000       0.00000  
topohru0254            0.05463      30.00000      30.00000     121.00000       0.00000  
topohru0255            0.07515      30.00000      30.00000     121.00000       0.00000  
topohru0256            0.00991      30.00000      30.00000     121.00000       0.00000  
topohru0257            0.01126      30.00000      30.00000     121.00000       0.00000  
topohru0258            0.05329      30.00000      30.00000     121.00000       0.00000  
topohru0259            0.07489      30.00000      30.00000     121.00000       0.00000  
topohru0260            0.07739      30.00000      30.00000     121.00000       0.00000  
topohru0261            0.00320      30.00000      30.00000     121.00000       0.00000  
topohru0262            0.05743      30.00000      30.00000     121.00000       0.00000  
topohru0263            0.02831      30.00000      30.00000     121.00000       0.00000  
topohru0264            0.13516      30.00000      30.00000     121.00000       0.00000  
topohru0265            0.02694      30.00000      30.00000     121.00000       0.00000  
topohru0266            0.04241      30.00000      30.00000     121.00000       0.00000  
topohru0267            0.00476      30.00000      30.00000     121.00000       0.00000  
topohru0268            0.03687      30.00000      30.00000     121.00000       0.00000  
topohru0269            0.03206      30.00000      30.00000     121.00000       0.00000  
topohru0270            0.09266      30.00000      30.00000     121.00000       0.00000  
topohru0271            0.07387      30.00000      30.00000     121.00000       0.00000  
topohru0272            0.00486      30.00000      30.00000     121.00000       0.00000  
topohru0273            0.00028      30.00000      30.00000     121.00000       0.00000  
topohru0274            0.19069      30.00000      30.00000     121.00000       0.00000  
topohru0275            0.05675      30.00000      30.00000     121.00000       0.00000  
topohru0276            0.10812      30.00000      30.00000     121.00000       0.00000  
topohru0277            0.06438      30.00000      30.00000     121.00000       0.00000  
topohru0278            0.06531      30.00000      30.00000     121.00000       0.00000  
topohru0279            0.04373      30.00000      30.00000     121.00000       0.00000  
topohru0280            0.08246      30.00000      30.00000     121.00000       0.00000  
topohru0281            0.10018      30.00000      30.00000     121.00000       0.00000  
topohru0282            0.10286      30.00000      30.00000     121.00000       0.00000  
topohru0283            0.01290      30.00000      30.00000     121.00000       0.00000  
topohru0284            0.13539      30.00000      30.00000     121.00000       0.00000  
topohru0285            0.06048      30.00000      30.00000     121.00000       0.00000  
topohru0286            0.07699      30.00000      30.00000     121.00000       0.00000  
topohru0287            0.08388      30.00000      30.00000     121.00000       0.00000  
topohru0288            0.06193      30.00000      30.00000     121.00000       0.00000  
topohru0289            0.00802      30.00000      30.00000     121.00000       0.00000  
topohru0290            0.01572      30.00000      30.00000     121.00000       0.00000  
topohru0291            0.00786      30.00000      30.00000     121.00000       0.00000  
topohru0292            0.07479      30.00000      30.00000     121.00000       0.00000  
topohru0293            0.02801      30.00000      30.00000     121.00000       0.00000  
topohru0294            0.01456      30.00000      30.00000     121.00000       0.00000  
topohru0295            0.06028      30.00000      30.00000     121.00000       0.00000  
topohru0296            0.05211      30.00000      30.00000     121.00000       0.00000  
topohru0297            0.11678      30.00000      30.00000     121.00000       0.00000  
topohru0298            0.11594      30.00000      30.00000     121.00000       0.00000  
topohru0299            0.07845      30.00000      30.00000     121.00000       0.00000  
topohru0300            0.11125      30.00000      30.00000     121.00000       0.00000  
topohru0301            0.07813      30.00000      30.00000     121.00000       0.00000  
topohru0302            0.06661      30.00000      30.00000     121.00000       0.00000  
topohru0303            0.01200      30.00000      30.00000     121.00000       0.00000  
topohru0304            0.00761      30.00000      30.00000     121.00000       0.00000  
topohru0305            0.02487      30.00000      30.00000     121.00000       0.00000  
topohru0306            0.11562      30.00000      30.00000     121.00000       0.00000  
topohru0307            0.03160      30.00000      30.00000     121.00000       0.00000  
topohru0308            0.07127      30.00000      30.00000     121.00000       0.00000  
topohru0309            0.07412      30.00000      30.00000     121.00000       0.00000  
topohru0310            0.03474      30.00000      30.00000     121.00000       0.00000  
topohru0311            0.00774      30.00000      30.00000     121.00000       0.00000  
topohru0312            0.02844      30.00000      30.00000     121.00000       0.00000  
topohru0313            0.06004      30.00000      30.00000     121.00000       0.00000  
topohru0314            0.07686      30.00000      30.00000     121.00000       0.00000  
topohru0315            0.01541      30.00000      30.00000     121.00000       0.00000  
topohru0316            0.01604      30.00000      30.00000     121.00000       0.00000  
topohru0317            0.07579      30.00000      30.00000     121.00000       0.00000  
topohru0318            0.13348      30.00000      30.00000     121.00000       0.00000  
topohru0319            0.17097      30.00000      30.00000     121.00000       0.00000  
topohru0320            0.16348      30.00000      30.00000     121.00000       0.00000  
topohru0321            0.08692      30.00000      30.00000     121.00000       0.00000  
topohru0322            0.09261      30.00000      30.00000     121.00000       0.00000  
topohru0323            0.02217      30.00000      30.00000     121.00000       0.00000  
topohru0324            0.01036      30.00000      30.00000     121.00000       0.00000  
topohru0325            0.01047      30.00000      30.00000     121.00000       0.00000  
topohru0326            0.06026      30.00000      30.00000     121.00000       0.00000  
topohru0327            0.07491      30.00000      30.00000     121.00000       0.00000  
topohru0328            0.01370      30.00000      30.00000     121.00000       0.00000  
topohru0329            0.01157      30.00000      30.00000     121.00000       0.00000  
topohru0330            0.12541      30.00000      30.00000     121.00000       0.00000  
topohru0331            0.01740      30.00000      30.00000     121.00000       0.00000  
topohru0332            0.07852      30.00000      30.00000     121.00000       0.00000  
topohru0333            0.12454      30.00000      30.00000     121.00000       0.00000  
topohru0334            0.05458      30.00000      30.00000     121.00000       0.00000  
topohru0335            0.07591      30.00000      30.00000     121.00000       0.00000  