weather-sta.cli: written by SWAT+ editor v2.1.0 on 2024-03-26 18:08 for SWAT+ rev.60.5.4
name                           wgn                        pcp                        tmp                        slr                        hmd                        wnd           wnd_dir          atmo_dep  
s46817n695e                    pay                sta_id3.pcp                sta_id3.tmp                sta_id3.slr                sta_id3.hmd                sta_id3.wnd              null              null  
