weather-wgn.cli: written by SWAT+ editor v2.1.0 on 2024-03-26 18:08 for SWAT+ rev.60.5.4
pay                            46.82000       6.95000     490.00000        34  
 tmp_max_ave   tmp_min_ave    tmp_max_sd    tmp_min_sd       pcp_ave        pcp_sd      pcp_skew       wet_dry       wet_wet      pcp_days       pcp_hhr       slr_ave       dew_ave       wnd_ave  
     3.70029      -1.81055       4.45147       3.91331       1.60702       3.99520       4.42098       0.24116       0.65046      12.70588       7.90000       3.76313       0.84796       2.18447  
     5.79110      -1.67588       4.83932       3.99719       1.58991       3.59927       3.80224       0.22089       0.65517      11.08824       8.20000       6.73587       0.79853       2.41760  
    10.85885       1.03294       4.69786       3.50553       1.74592       4.16868       4.01194       0.23445       0.65340      12.55882      14.90000      11.45134       0.73372       2.46168  
    14.83303       3.72333       4.84996       3.02922       2.12971       5.03684       3.70809       0.25763       0.64419      12.64706      25.60000      15.79514       0.71004       2.17283  
    19.28905       8.05054       4.55578       3.05851       2.79526       5.42692       2.66760       0.31827       0.67686      15.38235      20.70000      19.23789       0.72557       2.06481  
    22.88505      11.49697       4.71664       2.95718       2.98088       6.28615       3.23185       0.28545       0.68182      14.23529      33.80000      21.71267       0.72031       1.94384  
    25.48788      13.22014       4.35608       2.62282       3.02002       6.72554       3.35576       0.28110       0.59770      12.79412      36.90000      21.43151       0.70071       1.87410  
    24.98661      13.14467       4.39547       2.69564       2.75522       6.67128       4.04652       0.29743       0.57176      12.70588      63.10000      18.28141       0.72871       1.68358  
    19.97606       9.55768       4.08131       3.11892       2.40059       5.89879       3.92197       0.22940       0.64339      11.79412      17.00000      13.45484       0.78874       1.75869  
    14.40313       6.15347       4.12322       3.43699       2.79791       6.49589       3.62327       0.28007       0.68410      14.61765      19.20000       7.71536       0.84662       1.69560  
     7.77717       1.75434       4.16239       3.63010       2.14353       5.11690       4.01885       0.28893       0.62217      13.00000       9.30000       4.16431       0.86038       1.89354  
     4.19531      -1.01769       4.21507       3.86440       2.05740       4.58988       3.53050       0.26541       0.66809      13.82353       8.70000       2.96116       0.85500       2.26500  
