wetland.wet: written by SWAT+ editor v2.1.0 on 2024-03-26 18:09 for SWAT+ rev.60.5.4
      id  name                          init               hyd               rel               sed               nut  
       1  wet6284                   initwet1        hydwet6284           wetland           sedwet1           nutwet1  
       2  wet6285                   initwet1        hydwet6285           wetland           sedwet1           nutwet1  
       3  wet6286                   initwet1        hydwet6286           wetland           sedwet1           nutwet1  
       4  wet6287                   initwet1        hydwet6287           wetland           sedwet1           nutwet1  
       5  wet6288                   initwet1        hydwet6288           wetland           sedwet1           nutwet1  
       6  wet6289                   initwet1        hydwet6289           wetland           sedwet1           nutwet1  
