chandeg.con: written by SWAT+ editor v2.2.0 on 2024-06-05 07:19 for SWAT+ rev.60.5.4
      id  name                gis_id          area           lat           lon          elev      lcha               wst       cst      ovfl      rule   out_tot       obj_typ    obj_id       hyd_typ          frac  
       1  cha01                    0       1.44040      46.67073      16.80228     175.83398         1         s467n168e         0         0         0         1           sdc         3           tot       1.00000  
       2  cha02                    0      21.04070      46.69473      16.81249     185.63905         2         s467n168e         0         0         0         1           sdc         6           tot       1.00000  
       3  cha03                    0      20.93290      46.67812      16.81285     174.38609         3         s467n168e         0         0         0         1           sdc         6           tot       1.00000  
       4  cha04                    0       4.30290      46.66911      16.80600     185.05898         4         s467n168e         0         0         0         1           sdc         3           tot       1.00000  
       5  cha05                    0      40.64060      46.71419      16.82730     186.47855         5         s467n168e         0         0         0         1           sdc        11           tot       1.00000  
       6  cha06                    0      57.56216      46.68796      16.82543     169.10505         6         s467n168e         0         0         0         1           sdc        11           tot       1.00000  
       7  cha07                    0      12.90252      46.74410      16.83242     177.71488         7         s467n168e         0         0         0         1           res         1           tot       1.00000  
       8  cha08                    0      18.35440      46.73733      16.84643     160.58305         8         s467n168e         0         0         0         1           sdc        26           tot       1.00000  
       9  cha09                    0       9.51770      46.77751      16.84420     179.88500         9         s468n168e         0         0         0         1           sdc        21           tot       1.00000  
      10  cha10                    0       3.75128      46.75470      16.84577     179.07755        10         s468n168e         0         0         0         1           sdc        22           tot       1.00000  
      11  cha11                    0     105.26550      46.68311      16.83625     163.53656        11         s467n168e         0         0         0         1           sdc        20           tot       1.00000  
      12  cha12                    0       7.66970      46.80463      16.85334     153.52800        12         s468n169e         0         0         0         1           sdc        30           tot       1.00000  
      13  cha13                    0      37.38510      46.66139      16.83406     172.99268        13         s467n168e         0         0         0         1           sdc        18           tot       1.00000  
      14  cha14                    0      10.82670      46.63403      16.82767     194.83250        14         s466n168e         0         0         0         1           sdc        13           tot       1.00000  
      15  cha15                    0       5.26419      46.63568      16.83660     195.41750        15         s466n168e         0         0         0         1           res         3           tot       1.00000  
      16  cha16                    0      12.28610      46.64293      16.83172     189.64313        16         s466n168e         0         0         0         1           res         2           tot       1.00000  
      17  cha17                    0      10.82670      46.64520      16.82925     186.89700        17         s466n168e         0         0         0         1           sdc        13           tot       1.00000  
      18  cha18                    0     121.74370      46.67983      16.83937     160.69455        18         s467n168e         0         0         0         1           sdc        20           tot       1.00000  
      19  cha19                    0      54.97430      46.67180      16.84247     165.84470        19         s467n168e         0         0         0         1           sdc        18           tot       1.00000  
      20  cha20                    0     233.61170      46.69498      16.84475     158.16215        20         s467n168e         0         0         0         1           sdc        27           tot       1.00000  
      21  cha21                    0     396.60280      46.78174      16.85738     148.53765        21         s468n169e         0         0         0         1           sdc        24           tot       1.00000  
      22  cha22                    0     369.06948      46.76940      16.85540     150.36350        22         s468n169e         0         0         0         1           sdc        21           tot       1.00000  
      23  cha23                    0     404.34483      46.79187      16.85891     147.49777        23         s468n169e         0         0         0         1           sdc        30           tot       1.00000  
      24  cha24                    0     400.89870      46.78505      16.85783     148.33604        24         s468n169e         0         0         0         1           sdc        23           tot       1.00000  
      25  cha25                    0       5.93740      46.79075      16.86731     164.18151        25         s468n169e         0         0         0         1           sdc        23           tot       1.00000  
      26  cha26                    0     334.71960      46.75206      16.85429     151.68171        26         s468n169e         0         0         0         1           sdc        22           tot       1.00000  
      27  cha27                    0     317.52170      46.72705      16.85094     154.63804        27         s467n169e         0         0         0         1           sdc        26           tot       1.00000  
      28  cha28                    0      13.31350      46.69134      16.85231     161.32304        28         s467n169e         0         0         0         1           sdc        27           tot       1.00000  
      29  cha29                    0     450.44030      46.81024      16.86246     145.53974        29         s468n169e         0         0         0         1           sdc        34           tot       1.00000  
      30  cha30                    0     432.91903      46.79756      16.86005     146.80331        30         s468n169e         0         0         0         1           sdc        29           tot       1.00000  
      31  cha31                    0      11.20224      46.80272      16.87141     172.02910        31         s468n169e         0         0         0         1           sdc        29           tot       1.00000  
      32  cha32                    0      10.34520      46.78718      16.88355     191.75586        32         s468n169e         0         0         0         1           res         4           tot       1.00000  
      33  cha33                    0      22.87420      46.77747      16.86537     160.21754        33         s468n169e         0         0         0         1           sdc        24           tot       1.00000  
      34  cha34                    0     455.27580      46.83273      16.86713     143.18252        34         s468n169e         0         0         0         1           sdc        36           tot       1.00000  
      35  cha35                    0       1.34360      46.81984      16.87048     186.16022        35         s468n169e         0         0         0         1           sdc        34           tot       1.00000  
      36  cha36                    0     499.28312      46.84332      16.86985     142.05851        36         s468n169e         0         0         0         0  
      37  cha37                    0      27.21250      46.84202      16.87493     148.79300        37         s468n169e         0         0         0         1           sdc        36           tot       1.00000  
      38  cha38                    0      15.50450      46.65648      16.85089     193.38355        38         s467n169e         0         0         0         1           sdc        19           tot       1.00000  
      39  cha39                    0      53.12598      46.66151      16.86185     185.56005        39         s467n169e         0         0         0         1           sdc        19           tot       1.00000  
      40  cha40                    0      23.70900      46.84141      16.88479     159.76050        40         s468n169e         0         0         0         1           sdc        37           tot       1.00000  
      41  cha41                    0      23.70900      46.83580      16.88797     167.13563        41         s468n169e         0         0         0         1           sdc        37           tot       1.00000  
      42  cha42                    0      37.06530      46.66032      16.88016     208.21850        42         s467n169e         0         0         0         1           sdc        39           tot       1.00000  
      43  cha43                    0      32.25958      46.65120      16.87657     191.25853        43         s467n169e         0         0         0         1           sdc        39           tot       1.00000  
      44  cha44                    0      21.31390      46.65326      16.88386     208.83850        44         s467n169e         0         0         0         1           sdc        43           tot       1.00000  
      45  cha45                    0      20.84715      46.64756      16.87953     196.00507        45       s466n16901e         0         0         0         1           sdc        43           tot       1.00000  
      46  cha46                    0       7.66380      46.63707      16.87992     208.88600        46       s466n16901e         0         0         0         1           sdc        45           tot       1.00000  
      47  cha47                    0       8.56620      46.64171      16.88959     242.02650        47       s466n16901e         0         0         0         1           sdc        45           tot       1.00000  
