hru-data.hru: written by SWAT+ editor v2.2.0 on 2024-06-05 07:19 for SWAT+ rev.60.5.4, edited manually on 2024-07-22 13:19:24.204163 and edited with SWATfarmR 2.0.5 on 2024-07-23 08:14:27
      id  name                          topo             hydro              soil            lu_mgt   soil_plant_init         surf_stor              snow             field
       1  hru0001                topohru0001           hyd0001                 1          frst_lum     soilplant0001              null           snow001              null
       2  hru0002                topohru0002           hyd0002                 2          frst_lum     soilplant0002              null           snow001              null
       3  hru0003                topohru0003           hyd0003                 3    mdw_3cts_1_lum     soilplant0003              null           snow001              null
       4  hru0004                topohru0004           hyd0004                 4          frst_lum     soilplant0004              null           snow001              null
       5  hru0005                topohru0005           hyd0005                 5          wetl_lum     soilplant0005           wet0005           snow001              null
       6  hru0006                topohru0006           hyd0006                 6          rnge_lum     soilplant0006              null           snow001              null
       7  hru0007                topohru0007           hyd0007                 7       field_1_lum     soilplant0007              null           snow001              null
       8  hru0008                topohru0008           hyd0008                 8          rnge_lum     soilplant0008              null           snow001              null
       9  hru0009                topohru0009           hyd0009                 9          rnge_lum     soilplant0009              null           snow001              null
      10  hru0010                topohru0010           hyd0010                10    mdw_3cts_2_lum     soilplant0010              null           snow001              null
      11  hru0011                topohru0011           hyd0011                11          wetl_lum     soilplant0011           wet0011           snow001              null
      12  hru0012                topohru0012           hyd0012                12    mdw_3cts_3_lum     soilplant0012              null           snow001              null
      13  hru0013                topohru0013           hyd0013                13          frst_lum     soilplant0013              null           snow001              null
      14  hru0014                topohru0014           hyd0014                14          frst_lum     soilplant0014              null           snow001              null
      15  hru0015                topohru0015           hyd0015                15           shr_lum     soilplant0015              null           snow001              null
      16  hru0016                topohru0016           hyd0016                16           shr_lum     soilplant0016              null           snow001              null
      17  hru0017                topohru0017           hyd0017                17    mdw_3cts_4_lum     soilplant0017              null           snow001              null
      18  hru0018                topohru0018           hyd0018                18       field_2_lum     soilplant0018              null           snow001              null
      19  hru0019                topohru0019           hyd0019                19          rnge_lum     soilplant0019              null           snow001              null
      20  hru0020                topohru0020           hyd0020                20          rnge_lum     soilplant0020              null           snow001              null
      21  hru0021                topohru0021           hyd0021                21          frst_lum     soilplant0021              null           snow001              null
      22  hru0022                topohru0022           hyd0022                22          wetl_lum     soilplant0022           wet0022           snow001              null
      23  hru0023                topohru0023           hyd0023                23           shr_lum     soilplant0023              null           snow001              null
      24  hru0024                topohru0024           hyd0024                24           shr_lum     soilplant0024              null           snow001              null
      25  hru0025                topohru0025           hyd0025                25    mdw_3cts_5_lum     soilplant0025              null           snow001              null
      26  hru0026                topohru0026           hyd0026                26    mdw_3cts_6_lum     soilplant0026              null           snow001              null
      27  hru0027                topohru0027           hyd0027                27    mdw_3cts_7_lum     soilplant0027              null           snow001              null
      28  hru0028                topohru0028           hyd0028                28          wetl_lum     soilplant0028           wet0028           snow001              null
      29  hru0029                topohru0029           hyd0029                29    mdw_3cts_8_lum     soilplant0029              null           snow001              null
      30  hru0030                topohru0030           hyd0030                30          utrn_lum     soilplant0030              null           snow001              null
      31  hru0031                topohru0031           hyd0031                31           shr_lum     soilplant0031              null           snow001              null
      32  hru0032                topohru0032           hyd0032                32    mdw_3cts_9_lum     soilplant0032              null           snow001              null
      33  hru0033                topohru0033           hyd0033                33   mdw_3cts_10_lum     soilplant0033              null           snow001              null
      34  hru0034                topohru0034           hyd0034                34          urbn_lum     soilplant0034              null           snow001              null
      35  hru0035                topohru0035           hyd0035                35          frst_lum     soilplant0035              null           snow001              null
      36  hru0036                topohru0036           hyd0036                36          urbn_lum     soilplant0036              null           snow001              null
      37  hru0037                topohru0037           hyd0037                37          wetl_lum     soilplant0037           wet0037           snow001              null
      38  hru0038                topohru0038           hyd0038                38          rnge_lum     soilplant0038              null           snow001              null
      39  hru0039                topohru0039           hyd0039                39          rnge_lum     soilplant0039              null           snow001              null
      40  hru0040                topohru0040           hyd0040                40       field_3_lum     soilplant0040              null           snow001              null
      41  hru0041                topohru0041           hyd0041                41           shr_lum     soilplant0041              null           snow001              null
      42  hru0042                topohru0042           hyd0042                42          urld_lum     soilplant0042              null           snow001              null
      43  hru0043                topohru0043           hyd0043                43          rnge_lum     soilplant0043              null           snow001              null
      44  hru0044                topohru0044           hyd0044                44          frst_lum     soilplant0044              null           snow001              null
      45  hru0045                topohru0045           hyd0045                45           shr_lum     soilplant0045              null           snow001              null
      46  hru0046                topohru0046           hyd0046                46       komplex_lum     soilplant0046              null           snow001              null
      47  hru0047                topohru0047           hyd0047                47   mdw_3cts_11_lum     soilplant0047              null           snow001              null
      48  hru0048                topohru0048           hyd0048                48   mdw_3cts_12_lum     soilplant0048              null           snow001              null
      49  hru0049                topohru0049           hyd0049                49          wetl_lum     soilplant0049           wet0049           snow001              null
      50  hru0050                topohru0050           hyd0050                50          urbn_lum     soilplant0050              null           snow001              null
      51  hru0051                topohru0051           hyd0051                51   mdw_3cts_13_lum     soilplant0051              null           snow001              null
      52  hru0052                topohru0052           hyd0052                52          frst_lum     soilplant0052              null           snow001              null
      53  hru0053                topohru0053           hyd0053                53       komplex_lum     soilplant0053              null           snow001              null
      54  hru0054                topohru0054           hyd0054                54          wetl_lum     soilplant0054           wet0054           snow001              null
      55  hru0055                topohru0055           hyd0055                55          utrn_lum     soilplant0055              null           snow001              null
      56  hru0056                topohru0056           hyd0056                56           shr_lum     soilplant0056              null           snow001              null
      57  hru0057                topohru0057           hyd0057                57          frst_lum     soilplant0057              null           snow001              null
      58  hru0058                topohru0058           hyd0058                58          frst_lum     soilplant0058              null           snow001              null
      59  hru0059                topohru0059           hyd0059                59        orcd_1_lum     soilplant0059              null           snow001              null
      60  hru0060                topohru0060           hyd0060                60   mdw_3cts_14_lum     soilplant0060              null           snow001              null
      61  hru0061                topohru0061           hyd0061                61          rnge_lum     soilplant0061              null           snow001              null
      62  hru0062                topohru0062           hyd0062                62          rnge_lum     soilplant0062              null           snow001              null
      63  hru0063                topohru0063           hyd0063                63          urbn_lum     soilplant0063              null           snow001              null
      64  hru0064                topohru0064           hyd0064                64          urbn_lum     soilplant0064              null           snow001              null
      65  hru0065                topohru0065           hyd0065                65       komplex_lum     soilplant0065              null           snow001              null
      66  hru0066                topohru0066           hyd0066                66       komplex_lum     soilplant0066              null           snow001              null
      67  hru0067                topohru0067           hyd0067                67          frst_lum     soilplant0067              null           snow001              null
      68  hru0068                topohru0068           hyd0068                68          rnge_lum     soilplant0068              null           snow001              null
      69  hru0069                topohru0069           hyd0069                69       komplex_lum     soilplant0069              null           snow001              null
      70  hru0070                topohru0070           hyd0070                70          urbn_lum     soilplant0070              null           snow001              null
      71  hru0071                topohru0071           hyd0071                71   mdw_3cts_15_lum     soilplant0071              null           snow001              null
      72  hru0072                topohru0072           hyd0072                72          rnge_lum     soilplant0072              null           snow001              null
      73  hru0073                topohru0073           hyd0073                73       komplex_lum     soilplant0073              null           snow001              null
      74  hru0074                topohru0074           hyd0074                74          urbn_lum     soilplant0074              null           snow001              null
      75  hru0075                topohru0075           hyd0075                75          utrn_lum     soilplant0075              null           snow001              null
      76  hru0076                topohru0076           hyd0076                76   mdw_3cts_16_lum     soilplant0076              null           snow001              null
      77  hru0077                topohru0077           hyd0077                77   mdw_3cts_17_lum     soilplant0077              null           snow001              null
      78  hru0078                topohru0078           hyd0078                78       komplex_lum     soilplant0078              null           snow001              null
      79  hru0079                topohru0079           hyd0079                79          frst_lum     soilplant0079              null           snow001              null
      80  hru0080                topohru0080           hyd0080                80          urbn_lum     soilplant0080              null           snow001              null
      81  hru0081                topohru0081           hyd0081                81           shr_lum     soilplant0081              null           snow001              null
      82  hru0082                topohru0082           hyd0082                82       field_4_lum     soilplant0082              null           snow001              null
      83  hru0083                topohru0083           hyd0083                83       field_5_lum     soilplant0083              null           snow001              null
      84  hru0084                topohru0084           hyd0084                84          urbn_lum     soilplant0084              null           snow001              null
      85  hru0085                topohru0085           hyd0085                85   mdw_3cts_18_lum     soilplant0085              null           snow001              null
      86  hru0086                topohru0086           hyd0086                86           shr_lum     soilplant0086              null           snow001              null
      87  hru0087                topohru0087           hyd0087                87          urbn_lum     soilplant0087              null           snow001              null
      88  hru0088                topohru0088           hyd0088                88          urbn_lum     soilplant0088              null           snow001              null
      89  hru0089                topohru0089           hyd0089                89       komplex_lum     soilplant0089              null           snow001              null
      90  hru0090                topohru0090           hyd0090                90          wetl_lum     soilplant0090           wet0090           snow001              null
      91  hru0091                topohru0091           hyd0091                91       field_6_lum     soilplant0091              null           snow001              null
      92  hru0092                topohru0092           hyd0092                92       komplex_lum     soilplant0092              null           snow001              null
      93  hru0093                topohru0093           hyd0093                93       field_7_lum     soilplant0093              null           snow001              null
      94  hru0094                topohru0094           hyd0094                94           shr_lum     soilplant0094              null           snow001              null
      95  hru0095                topohru0095           hyd0095                95          wetl_lum     soilplant0095           wet0095           snow001              null
      96  hru0096                topohru0096           hyd0096                96       komplex_lum     soilplant0096              null           snow001              null
      97  hru0097                topohru0097           hyd0097                97          wetl_lum     soilplant0097           wet0097           snow001              null
      98  hru0098                topohru0098           hyd0098                98          rnge_lum     soilplant0098              null           snow001              null
      99  hru0099                topohru0099           hyd0099                99          urld_lum     soilplant0099              null           snow001              null
     100  hru0100                topohru0100           hyd0100               100          urbn_lum     soilplant0100              null           snow001              null
     101  hru0101                topohru0101           hyd0101               101          rnge_lum     soilplant0101              null           snow001              null
     102  hru0102                topohru0102           hyd0102               102          urbn_lum     soilplant0102              null           snow001              null
     103  hru0103                topohru0103           hyd0103               103          urbn_lum     soilplant0103              null           snow001              null
     104  hru0104                topohru0104           hyd0104               104   mdw_3cts_19_lum     soilplant0104              null           snow001              null
     105  hru0105                topohru0105           hyd0105               105       komplex_lum     soilplant0105              null           snow001              null
     106  hru0106                topohru0106           hyd0106               106           shr_lum     soilplant0106              null           snow001              null
     107  hru0107                topohru0107           hyd0107               107       komplex_lum     soilplant0107              null           snow001              null
     108  hru0108                topohru0108           hyd0108               108          rnge_lum     soilplant0108              null           snow001              null
     109  hru0109                topohru0109           hyd0109               109          utrn_lum     soilplant0109              null           snow001              null
     110  hru0110                topohru0110           hyd0110               110          rnge_lum     soilplant0110              null           snow001              null
     111  hru0111                topohru0111           hyd0111               111       komplex_lum     soilplant0111              null           snow001              null
     112  hru0112                topohru0112           hyd0112               112          urbn_lum     soilplant0112              null           snow001              null
     113  hru0113                topohru0113           hyd0113               113          utrn_lum     soilplant0113              null           snow001              null
     114  hru0114                topohru0114           hyd0114               114          urld_lum     soilplant0114              null           snow001              null
     115  hru0115                topohru0115           hyd0115               115          urbn_lum     soilplant0115              null           snow001              null
     116  hru0116                topohru0116           hyd0116               116          urbn_lum     soilplant0116              null           snow001              null
     117  hru0117                topohru0117           hyd0117               117          urbn_lum     soilplant0117              null           snow001              null
     118  hru0118                topohru0118           hyd0118               118          utrn_lum     soilplant0118              null           snow001              null
     119  hru0119                topohru0119           hyd0119               119          urld_lum     soilplant0119              null           snow001              null
     120  hru0120                topohru0120           hyd0120               120          urld_lum     soilplant0120              null           snow001              null
     121  hru0121                topohru0121           hyd0121               121          urhd_lum     soilplant0121              null           snow001              null
     122  hru0122                topohru0122           hyd0122               122          urld_lum     soilplant0122              null           snow001              null
     123  hru0123                topohru0123           hyd0123               123          urld_lum     soilplant0123              null           snow001              null
     124  hru0124                topohru0124           hyd0124               124          urld_lum     soilplant0124              null           snow001              null
     125  hru0125                topohru0125           hyd0125               125          urld_lum     soilplant0125              null           snow001              null
     126  hru0126                topohru0126           hyd0126               126          urld_lum     soilplant0126              null           snow001              null
     127  hru0127                topohru0127           hyd0127               127          urld_lum     soilplant0127              null           snow001              null
     128  hru0128                topohru0128           hyd0128               128          urbn_lum     soilplant0128              null           snow001              null
     129  hru0129                topohru0129           hyd0129               129          urld_lum     soilplant0129              null           snow001              null
     130  hru0130                topohru0130           hyd0130               130          urld_lum     soilplant0130              null           snow001              null
     131  hru0131                topohru0131           hyd0131               131          urld_lum     soilplant0131              null           snow001              null
     132  hru0132                topohru0132           hyd0132               132          urld_lum     soilplant0132              null           snow001              null
     133  hru0133                topohru0133           hyd0133               133          urld_lum     soilplant0133              null           snow001              null
     134  hru0134                topohru0134           hyd0134               134          utrn_lum     soilplant0134              null           snow001              null
     135  hru0135                topohru0135           hyd0135               135          urld_lum     soilplant0135              null           snow001              null
     136  hru0136                topohru0136           hyd0136               136          urld_lum     soilplant0136              null           snow001              null
     137  hru0137                topohru0137           hyd0137               137          uidu_lum     soilplant0137              null           snow001              null
     138  hru0138                topohru0138           hyd0138               138          urld_lum     soilplant0138              null           snow001              null
     139  hru0139                topohru0139           hyd0139               139          urld_lum     soilplant0139              null           snow001              null
     140  hru0140                topohru0140           hyd0140               140           shr_lum     soilplant0140              null           snow001              null
     141  hru0141                topohru0141           hyd0141               141          urbn_lum     soilplant0141              null           snow001              null
     142  hru0142                topohru0142           hyd0142               142          urbn_lum     soilplant0142              null           snow001              null
     143  hru0143                topohru0143           hyd0143               143          frst_lum     soilplant0143              null           snow001              null
     144  hru0144                topohru0144           hyd0144               144          urbn_lum     soilplant0144              null           snow001              null
     145  hru0145                topohru0145           hyd0145               145          wetl_lum     soilplant0145           wet0145           snow001              null
     146  hru0146                topohru0146           hyd0146               146          utrn_lum     soilplant0146              null           snow001              null
     147  hru0147                topohru0147           hyd0147               147          frst_lum     soilplant0147              null           snow001              null
     148  hru0148                topohru0148           hyd0148               148          urbn_lum     soilplant0148              null           snow001              null
     149  hru0149                topohru0149           hyd0149               149          utrn_lum     soilplant0149              null           snow001              null
     150  hru0150                topohru0150           hyd0150               150          utrn_lum     soilplant0150              null           snow001              null
     151  hru0151                topohru0151           hyd0151               151       field_8_lum     soilplant0151              null           snow001              null
     152  hru0152                topohru0152           hyd0152               152           shr_lum     soilplant0152              null           snow001              null
     153  hru0153                topohru0153           hyd0153               153          urbn_lum     soilplant0153              null           snow001              null
     154  hru0154                topohru0154           hyd0154               154          urbn_lum     soilplant0154              null           snow001              null
     155  hru0155                topohru0155           hyd0155               155          urbn_lum     soilplant0155              null           snow001              null
     156  hru0156                topohru0156           hyd0156               156          frst_lum     soilplant0156              null           snow001              null
     157  hru0157                topohru0157           hyd0157               157          frst_lum     soilplant0157              null           snow001              null
     158  hru0158                topohru0158           hyd0158               158           shr_lum     soilplant0158              null           snow001              null
     159  hru0159                topohru0159           hyd0159               159       komplex_lum     soilplant0159              null           snow001              null
     160  hru0160                topohru0160           hyd0160               160          urld_lum     soilplant0160              null           snow001              null
     161  hru0161                topohru0161           hyd0161               161       komplex_lum     soilplant0161              null           snow001              null
     162  hru0162                topohru0162           hyd0162               162          frst_lum     soilplant0162              null           snow001              null
     163  hru0163                topohru0163           hyd0163               163          urbn_lum     soilplant0163              null           snow001              null
     164  hru0164                topohru0164           hyd0164               164   mdw_3cts_20_lum     soilplant0164              null           snow001              null
     165  hru0165                topohru0165           hyd0165               165   mdw_3cts_21_lum     soilplant0165              null           snow001              null
     166  hru0166                topohru0166           hyd0166               166          urbn_lum     soilplant0166              null           snow001              null
     167  hru0167                topohru0167           hyd0167               167       komplex_lum     soilplant0167              null           snow001              null
     168  hru0168                topohru0168           hyd0168               168           shr_lum     soilplant0168              null           snow001              null
     169  hru0169                topohru0169           hyd0169               169       komplex_lum     soilplant0169              null           snow001              null
     170  hru0170                topohru0170           hyd0170               170          urld_lum     soilplant0170              null           snow001              null
     171  hru0171                topohru0171           hyd0171               171          utrn_lum     soilplant0171              null           snow001              null
     172  hru0172                topohru0172           hyd0172               172       komplex_lum     soilplant0172              null           snow001              null
     173  hru0173                topohru0173           hyd0173               173           shr_lum     soilplant0173              null           snow001              null