hru.con: written by SWAT+ editor v2.2.0 on 2024-06-05 07:19 for SWAT+ rev.60.5.4
      id  name                gis_id          area           lat           lon          elev       hru               wst       cst      ovfl      rule   out_tot  
       1  hru0001                  0       0.08528      46.83382      16.90481     276.56485         1         s468n169e         0         0         0         0  
       2  hru0002                  0       0.65436      46.81735      16.89824     296.74861         2         s468n169e         0         0         0         0  
       3  hru0003                  0       8.93989      46.77006      16.85702     152.97163         3         s468n169e         0         0         0         0  
       4  hru0004                  0       0.90638      46.67628      16.88485     256.72242         4         s467n169e         0         0         0         0  
       5  hru0005                  0       5.33501      46.83501      16.86856     143.90907         5         s468n169e         0         0         0         0  
       6  hru0006                  0      22.33181      46.66891      16.87894     232.91913         6         s467n169e         0         0         0         0  
       7  hru0007                  0       5.86630      46.75952      16.84787     174.17646         7         s468n168e         0         0         0         0  
       8  hru0008                  0       0.08334      46.77459      16.86983     168.97833         8         s468n169e         0         0         0         0  
       9  hru0009                  0       1.65808      46.78295      16.87962     226.88493         9         s468n169e         0         0         0         0  
      10  hru0010                  0       4.45443      46.79309      16.86225     152.81017        10         s468n169e         0         0         0         0  
      11  hru0011                  0       1.04651      46.72815      16.85371     156.57781        11         s467n169e         0         0         0         0  
      12  hru0012                  0       1.63563      46.77826      16.85878     153.37136        12         s468n169e         0         0         0         0  
      13  hru0013                  0       2.21776      46.78015      16.86333     178.63935        13         s468n169e         0         0         0         0  
      14  hru0014                  0       0.54192      46.82883      16.90701     297.04185        14         s468n169e         0         0         0         0  
      15  hru0015                  0       1.03346      46.71545      16.84615     158.24809        15         s467n168e         0         0         0         0  
      16  hru0016                  0       0.26772      46.78598      16.83328     253.01307        16         s468n168e         0         0         0         0  
      17  hru0017                  0      14.71348      46.78343      16.88357     218.26236        17         s468n169e         0         0         0         0  
      18  hru0018                  0      44.70786      46.66651      16.81688     205.43420        18         s467n168e         0         0         0         0  
      19  hru0019                  0       0.86321      46.83709      16.87485     151.36884        19         s468n169e         0         0         0         0  
      20  hru0020                  0       4.22925      46.75830      16.83285     220.68636        20         s468n168e         0         0         0         0  
      21  hru0021                  0       0.91692      46.72944      16.84988     155.74714        21         s467n168e         0         0         0         0  
      22  hru0022                  0       1.87838      46.75576      16.86543     165.61937        22         s468n169e         0         0         0         0  
      23  hru0023                  0       0.61992      46.71672      16.84609     159.27374        23         s467n168e         0         0         0         0  
      24  hru0024                  0       1.31912      46.69680      16.82202     200.18846        24         s467n168e         0         0         0         0  
      25  hru0025                  0       6.74771      46.76508      16.85343     152.02669        25         s468n169e         0         0         0         0  
      26  hru0026                  0       0.76341      46.69090      16.81830     189.49807        26         s467n168e         0         0         0         0  
      27  hru0027                  0      17.88034      46.79498      16.88279     228.61291        27         s468n169e         0         0         0         0  
      28  hru0028                  0       3.08485      46.79506      16.85096     156.63099        28         s468n169e         0         0         0         0  
      29  hru0029                  0       0.11784      46.82647      16.86205     151.34436        29         s468n169e         0         0         0         0  
      30  hru0030                  0       0.32274      46.83439      16.85877     180.98470        30         s468n169e         0         0         0         0  
      31  hru0031                  0       0.48361      46.78581      16.84302     227.68811        31         s468n168e         0         0         0         0  
      32  hru0032                  0       0.95140      46.76648      16.86181     184.79822        32         s468n169e         0         0         0         0  
      33  hru0033                  0      16.75161      46.76211      16.85570     153.48509        33         s468n169e         0         0         0         0  
      34  hru0034                  0       1.70841      46.80356      16.86823     191.68676        34         s468n169e         0         0         0         0  
      35  hru0035                  0      15.99959      46.79557      16.87650     207.56791        35         s468n169e         0         0         0         0  
      36  hru0036                  0       0.96628      46.66507      16.84849     174.10575        36         s467n168e         0         0         0         0  
      37  hru0037                  0       8.36008      46.69262      16.84907     158.60141        37         s467n168e         0         0         0         0  
      38  hru0038                  0       0.97448      46.82815      16.87838     172.16886        38         s468n169e         0         0         0         0  
      39  hru0039                  0       2.92667      46.80780      16.86065     147.91438        39         s468n169e         0         0         0         0  
      40  hru0040                  0       0.12487      46.78959      16.85222     155.82933        40         s468n169e         0         0         0         0  
      41  hru0041                  0      14.51141      46.79356      16.88559     212.30945        41         s468n169e         0         0         0         0  
      42  hru0042                  0       0.51732      46.72664      16.84618     162.87790        42         s467n168e         0         0         0         0  
      43  hru0043                  0       0.45334      46.76260      16.87174     234.26156        43         s468n169e         0         0         0         0  
      44  hru0044                  0       0.86720      46.72900      16.83554     206.58698        44         s467n168e         0         0         0         0  
      45  hru0045                  0       2.19735      46.80011      16.88050     226.14449        45         s468n169e         0         0         0         0  
      46  hru0046                  0       1.69616      46.82384      16.88860     250.43229        46         s468n169e         0         0         0         0  
      47  hru0047                  0       0.71775      46.74548      16.83176     178.59787        47         s467n168e         0         0         0         0  
      48  hru0048                  0       0.22143      46.80632      16.85116     158.36724        48         s468n169e         0         0         0         0  
      49  hru0049                  0       1.41704      46.83085      16.86937     144.01826        49         s468n169e         0         0         0         0  
      50  hru0050                  0       0.08057      46.81485      16.85339     161.41412        50         s468n169e         0         0         0         0  
      51  hru0051                  0       1.95646      46.76125      16.85100     154.66711        51         s468n169e         0         0         0         0  
      52  hru0052                  0      61.01106      46.82554      16.89050     214.24402        52         s468n169e         0         0         0         0  
      53  hru0053                  0       0.18266      46.77461      16.84852     177.11261        53         s468n168e         0         0         0         0  
      54  hru0054                  0       1.72252      46.81575      16.86186     147.00702        54         s468n169e         0         0         0         0  
      55  hru0055                  0       0.02905      46.76864      16.83084     259.61700        55         s468n168e         0         0         0         0  
      56  hru0056                  0       0.64518      46.76814      16.87495     245.64956        56         s468n169e         0         0         0         0  
      57  hru0057                  0       1.79691      46.76230      16.87532     235.15393        57         s468n169e         0         0         0         0  
      58  hru0058                  0       6.27819      46.72728      16.86102     203.61404        58         s467n169e         0         0         0         0  
      59  hru0059                  0       0.14512      46.78921      16.83290     251.54153        59         s468n168e         0         0         0         0  
      60  hru0060                  0       0.79365      46.72569      16.84026     191.27116        60         s467n168e         0         0         0         0  
      61  hru0061                  0       4.94437      46.77180      16.84056     173.95103        61         s468n168e         0         0         0         0  
      62  hru0062                  0      11.67964      46.68243      16.84389     161.93869        62         s467n168e         0         0         0         0  
      63  hru0063                  0       0.35719      46.70683      16.82261     205.47634        63         s467n168e         0         0         0         0  
      64  hru0064                  0       1.73466      46.67853      16.85614     186.84502        64         s467n169e         0         0         0         0  
      65  hru0065                  0       0.92932      46.84552      16.88731     183.41919        65         s468n169e         0         0         0         0  
      66  hru0066                  0       2.12601      46.76728      16.83337     265.17564        66         s468n168e         0         0         0         0  
      67  hru0067                  0       4.61227      46.73256      16.85373     155.57048        67         s467n169e         0         0         0         0  
      68  hru0068                  0       2.59197      46.79222      16.85156     156.15308        68         s468n169e         0         0         0         0  
      69  hru0069                  0      13.98547      46.82585      16.88561     245.98063        69         s468n169e         0         0         0         0  
      70  hru0070                  0       4.05095      46.80672      16.85616     166.03793        70         s468n169e         0         0         0         0  
      71  hru0071                  0       1.60847      46.76513      16.85707     153.98078        71         s468n169e         0         0         0         0  
      72  hru0072                  0       6.88081      46.78644      16.84826     172.95312        72         s468n168e         0         0         0         0  
      73  hru0073                  0       0.77584      46.79769      16.86275     150.28487        73         s468n169e         0         0         0         0  
      74  hru0074                  0       0.69427      46.81601      16.85447     162.17392        74         s468n169e         0         0         0         0  
      75  hru0075                  0       0.06703      46.81521      16.85687     167.98134        75         s468n169e         0         0         0         0  
      76  hru0076                  0       0.58921      46.77508      16.85776     151.68658        76         s468n169e         0         0         0         0  
      77  hru0077                  0       0.29347      46.77581      16.85762     151.84748        77         s468n169e         0         0         0         0  
      78  hru0078                  0       0.35316      46.80463      16.86943     208.90543        78         s468n169e         0         0         0         0  
      79  hru0079                  0       4.27548      46.79788      16.85438     153.91108        79         s468n169e         0         0         0         0  
      80  hru0080                  0       3.12856      46.78035      16.84385     201.55006        80         s468n168e         0         0         0         0  
      81  hru0081                  0       0.03356      46.73882      16.81824     205.49586        81         s467n168e         0         0         0         0  
      82  hru0082                  0       4.15132      46.76350      16.84190     234.45733        82         s468n168e         0         0         0         0  
      83  hru0083                  0       6.44734      46.68775      16.84831     162.90963        83         s467n168e         0         0         0         0  
      84  hru0084                  0       0.48930      46.77357      16.86005     168.09293        84         s468n169e         0         0         0         0  
      85  hru0085                  0      13.60949      46.76230      16.85968     173.64589        85         s468n169e         0         0         0         0  
      86  hru0086                  0       0.78261      46.73096      16.83553     212.16455        86         s467n168e         0         0         0         0  
      87  hru0087                  0       3.30152      46.70135      16.82026     200.56944        87         s467n168e         0         0         0         0  
      88  hru0088                  0       1.23917      46.75890      16.85084     155.23790        88         s468n169e         0         0         0         0  
      89  hru0089                  0       0.93892      46.77980      16.87514     190.20620        89         s468n169e         0         0         0         0  
      90  hru0090                  0       4.96839      46.79243      16.85630     152.16333        90         s468n169e         0         0         0         0  
      91  hru0091                  0       0.96742      46.80804      16.84546     180.36840        91         s468n168e         0         0         0         0  
      92  hru0092                  0       4.70537      46.84476      16.88989     173.70503        92         s468n169e         0         0         0         0  
      93  hru0093                  0       5.10314      46.71148      16.87603     205.95718        93         s467n169e         0         0         0         0  
      94  hru0094                  0       0.93938      46.80996      16.84544     178.57074        94         s468n168e         0         0         0         0  
      95  hru0095                  0       1.24754      46.69324      16.84687     159.24506        95         s467n168e         0         0         0         0  
      96  hru0096                  0       0.21033      46.83313      16.87760     173.94068        96         s468n169e         0         0         0         0  
      97  hru0097                  0       3.15020      46.69017      16.84823     159.62588        97         s467n168e         0         0         0         0  
      98  hru0098                  0      16.89756      46.67096      16.84467     167.46538        98         s467n168e         0         0         0         0  
      99  hru0099                  0       0.26265      46.77803      16.86389     166.24053        99         s468n169e         0         0         0         0  
     100  hru0100                  0       0.73273      46.72495      16.84401     177.65432       100         s467n168e         0         0         0         0  
     101  hru0101                  0       0.10383      46.84196      16.90018     219.54008       101         s468n169e         0         0         0         0  
     102  hru0102                  0       0.11780      46.84094      16.90061     207.64289       102         s468n169e         0         0         0         0  
     103  hru0103                  0       0.80125      46.77817      16.88133     218.49447       103         s468n169e         0         0         0         0  
     104  hru0104                  0       0.42108      46.78014      16.87203     172.47241       104         s468n169e         0         0         0         0  
     105  hru0105                  0       6.69333      46.82966      16.88132     204.75899       105         s468n169e         0         0         0         0  
     106  hru0106                  0      23.01103      46.79385      16.83278     220.26627       106         s468n168e         0         0         0         0  
     107  hru0107                  0       0.31425      46.81296      16.88417     281.08350       107         s468n169e         0         0         0         0  
     108  hru0108                  0       1.17686      46.79720      16.85508     153.70974       108         s468n169e         0         0         0         0  
     109  hru0109                  0       0.13295      46.80640      16.83572     237.76217       109         s468n168e         0         0         0         0  
     110  hru0110                  0       2.14963      46.69085      16.85455     160.91778       110         s467n169e         0         0         0         0  
     111  hru0111                  0       0.47564      46.82771      16.87952     179.09551       111         s468n169e         0         0         0         0  
     112  hru0112                  0       0.02371      46.84045      16.87829     151.97873       112         s468n169e         0         0         0         0  
     113  hru0113                  0       0.08333      46.84085      16.87795     151.78468       113         s468n169e         0         0         0         0  
     114  hru0114                  0       0.07955      46.84031      16.88045     155.52491       114         s468n169e         0         0         0         0  
     115  hru0115                  0       0.83406      46.78092      16.84833     173.09462       115         s468n168e         0         0         0         0  
     116  hru0116                  0       1.96024      46.78050      16.84986     162.91757       116         s468n168e         0         0         0         0  
     117  hru0117                  0       2.05255      46.75709      16.84159     205.42562       117         s468n168e         0         0         0         0  
     118  hru0118                  0       0.02076      46.75975      16.84167     218.57989       118         s468n168e         0         0         0         0  
     119  hru0119                  0       0.15559      46.83490      16.84367     159.72293       119         s468n168e         0         0         0         0  
     120  hru0120                  0       0.13903      46.83511      16.84455     157.54727       120         s468n168e         0         0         0         0  
     121  hru0121                  0       0.14207      46.83532      16.84534     156.40380       121         s468n168e         0         0         0         0  
     122  hru0122                  0       0.23733      46.83538      16.84607     155.35022       122         s468n168e         0         0         0         0  
     123  hru0123                  0       0.83338      46.83504      16.84574     155.93579       123         s468n168e         0         0         0         0  
     124  hru0124                  0       2.14146      46.83378      16.84479     158.10456       124         s468n168e         0         0         0         0  
     125  hru0125                  0       1.10054      46.83181      16.84671     156.47926       125         s468n168e         0         0         0         0  
     126  hru0126                  0       1.58120      46.83074      16.84688     157.03590       126         s468n168e         0         0         0         0  
     127  hru0127                  0       2.12564      46.82915      16.84708     158.58010       127         s468n168e         0         0         0         0  
     128  hru0128                  0       1.12471      46.83155      16.84498     160.31232       128         s468n168e         0         0         0         0  
     129  hru0129                  0       1.58384      46.83038      16.84539     160.12112       129         s468n168e         0         0         0         0  
     130  hru0130                  0       0.53628      46.82924      16.84570     163.51016       130         s468n168e         0         0         0         0  
     131  hru0131                  0       0.80545      46.82843      16.84586     163.20055       131         s468n168e         0         0         0         0  
     132  hru0132                  0       1.51821      46.82869      16.84378     168.45852       132         s468n168e         0         0         0         0  
     133  hru0133                  0       1.23900      46.82880      16.84471     164.01597       133         s468n168e         0         0         0         0  
     134  hru0134                  0       0.20098      46.83011      16.84452     162.44219       134         s468n168e         0         0         0         0  
     135  hru0135                  0       0.66367      46.83446      16.84640     155.00508       135         s468n168e         0         0         0         0  
     136  hru0136                  0       1.04206      46.83266      16.84651     156.09377       136         s468n168e         0         0         0         0  
     137  hru0137                  0       0.21094      46.83321      16.84708     154.85814       137         s468n168e         0         0         0         0  
     138  hru0138                  0       1.06843      46.83365      16.84641     155.56277       138         s468n168e         0         0         0         0  
     139  hru0139                  0       1.30868      46.83247      16.84475     160.75088       139         s468n168e         0         0         0         0  
     140  hru0140                  0       2.15951      46.81377      16.87863     228.21068       140         s468n169e         0         0         0         0  
     141  hru0141                  0       0.20423      46.83429      16.88152     162.57165       141         s468n169e         0         0         0         0  
     142  hru0142                  0       0.99963      46.67642      16.85368     167.97169       142         s467n169e         0         0         0         0  
     143  hru0143                  0       4.52011      46.78095      16.88287     228.03226       143         s468n169e         0         0         0         0  
     144  hru0144                  0       1.32758      46.80071      16.86725     159.16233       144         s468n169e         0         0         0         0  
     145  hru0145                  0       0.23833      46.73649      16.83846     167.46356       145         s467n168e         0         0         0         0  
     146  hru0146                  0       0.46433      46.80109      16.85067     158.12047       146         s468n169e         0         0         0         0  
     147  hru0147                  0     154.74801      46.74710      16.86060     191.04200       147         s467n169e         0         0         0         0  
     148  hru0148                  0       4.29715      46.74403      16.84926     156.98203       148         s467n168e         0         0         0         0  
     149  hru0149                  0       1.16926      46.84495      16.85821     148.00894       149         s468n169e         0         0         0         0  
     150  hru0150                  0       0.09978      46.84477      16.85775     146.86745       150         s468n169e         0         0         0         0  
     151  hru0151                  0       4.11517      46.67357      16.83900     164.18358       151         s467n168e         0         0         0         0  
     152  hru0152                  0       1.07483      46.79228      16.88443     219.35112       152         s468n169e         0         0         0         0  
     153  hru0153                  0       1.67941      46.73339      16.84879     157.89141       153         s467n168e         0         0         0         0  
     154  hru0154                  0       0.17108      46.73243      16.84813     158.50231       154         s467n168e         0         0         0         0  
     155  hru0155                  0       0.35732      46.73159      16.84729     159.05591       155         s467n168e         0         0         0         0  
     156  hru0156                  0      26.26394      46.73268      16.85918     192.28361       156         s467n169e         0         0         0         0  
     157  hru0157                  0      41.43714      46.77181      16.86847     202.45920       157         s468n169e         0         0         0         0  
     158  hru0158                  0       0.25423      46.77561      16.83951     181.40709       158         s468n168e         0         0         0         0  
     159  hru0159                  0       1.01213      46.80834      16.88082     251.09633       159         s468n169e         0         0         0         0  
     160  hru0160                  0       0.93713      46.73082      16.85034     157.22642       160         s467n169e         0         0         0         0  
     161  hru0161                  0       0.94546      46.81953      16.83806     215.19556       161         s468n168e         0         0         0         0  
     162  hru0162                  0      46.54674      46.72236      16.85733     184.59872       162         s467n169e         0         0         0         0  
     163  hru0163                  0       1.31658      46.83938      16.87754     166.24693       163         s468n169e         0         0         0         0  
     164  hru0164                  0       0.28377      46.77854      16.87285     168.89766       164         s468n169e         0         0         0         0  
     165  hru0165                  0       0.76849      46.80491      16.86473     156.90183       165         s468n169e         0         0         0         0  
     166  hru0166                  0       0.18114      46.77658      16.84400     174.53822       166         s468n168e         0         0         0         0  
     167  hru0167                  0       4.98973      46.77266      16.87473     228.44249       167         s468n169e         0         0         0         0  
     168  hru0168                  0       3.52835      46.81867      16.84065     194.96371       168         s468n168e         0         0         0         0  
     169  hru0169                  0       0.60027      46.83125      16.85727     169.18158       169         s468n169e         0         0         0         0  
     170  hru0170                  0       0.13692      46.82808      16.84245     181.65002       170         s468n168e         0         0         0         0  
     171  hru0171                  0       0.65721      46.82570      16.84219     184.65297       171         s468n168e         0         0         0         0  
     172  hru0172                  0       6.42817      46.81584      16.84251     205.91556       172         s468n168e         0         0         0         0  
     173  hru0173                  0       5.29306      46.81340      16.84107     204.19205       173         s468n168e         0         0         0         0  
     174  hru0174                  0       1.17250      46.82770      16.88085     194.76634       174         s468n169e         0         0         0         0  
     175  hru0175                  0       1.15570      46.82032      16.88635     277.59937       175         s468n169e         0         0         0         0  
     176  hru0176                  0      14.50957      46.81832      16.88347     261.02237       176         s468n169e         0         0         0         0  
     177  hru0177                  0       0.69777      46.68274      16.86110     197.18311       177         s467n169e         0         0         0         0  
     178  hru0178                  0       6.50337      46.72784      16.85026     156.06418       178         s467n169e         0         0         0         0  
     179  hru0179                  0      16.05347      46.67397      16.82082     200.07366       179         s467n168e         0         0         0         0  
     180  hru0180                  0       0.60339      46.67174      16.86109     207.28540       180         s467n169e         0         0         0         0  
     181  hru0181                  0       9.03560      46.72567      16.86537     200.53203       181         s467n169e         0         0         0         0  
     182  hru0182                  0       2.10426      46.77633      16.83044     260.64471       182         s468n168e         0         0         0         0  