hyd-sed-lte.cha: written by SWAT+ editor v2.2.0 on 2024-06-05 07:19 for SWAT+ rev.60.5.4
name                         order            wd            dp           slp           len          mann             k     erod_fact      cov_fact        wd_rto        eq_slp           d50          clay        carbon        dry_bd      side_slp      bed_load           fps           fpn        n_conc        p_conc         p_bio  description
hydcha01                      null       0.60695       0.12158       0.00290       0.68608       0.05000       1.00000       0.01000       0.00500       4.99197       0.00100      12.00000      50.00000       0.04000       1.00000       0.50000       0.50000       1.00000       1.00000       1.00000       1.00000       1.00000  
hydcha02                      null       1.55984       0.21525       0.00734       2.93117       0.05000       1.00000       0.01000       0.00500       7.24683       0.00100      12.00000      50.00000       0.04000       1.00000       0.50000       0.50000       1.00000       1.00000       1.00000       1.00000       1.00000  
hydcha03                      null       1.55703       0.21501       0.00055       1.67455       0.05000       1.00000       0.01000       0.00500       7.24165       0.00100      12.00000      50.00000       0.04000       1.00000       0.50000       0.50000       1.00000       1.00000       1.00000       1.00000       1.00000  
hydcha04                      null       0.89217       0.15350       0.02046       0.99922       0.05000       1.00000       0.01000       0.00500       5.81213       0.00100      12.00000      50.00000       0.04000       1.00000       0.50000       0.50000       1.00000       1.00000       1.00000       1.00000       1.00000  
hydcha05                      null       1.96661       0.24765       0.00648       6.83960       0.05000       1.00000       0.01000       0.00500       7.94123       0.00100      12.00000      50.00000       0.04000       1.00000       0.50000       0.50000       1.00000       1.00000       1.00000       1.00000       1.00000  
hydcha06                      null       2.22296       0.26670       0.00644       1.67969       0.05000       1.00000       0.01000       0.00500       8.33492       0.00100      12.00000      50.00000       0.04000       1.00000       0.50000       0.50000       1.00000       1.00000       1.00000       1.00000       1.00000  
hydcha07                      null       1.31317       0.19395       0.01044       1.09881       0.05000       1.00000       0.01000       0.00500       6.77059       0.00100      12.00000      50.00000       0.04000       1.00000       0.50000       0.50000       1.00000       1.00000       1.00000       1.00000       1.00000  
hydcha08                      null       1.48662       0.20907       0.00446       2.78734       0.05000       1.00000       0.01000       0.00500       7.11054       0.00100      12.00000      50.00000       0.04000       1.00000       0.50000       0.50000       1.00000       1.00000       1.00000       1.00000       1.00000  
hydcha09                      null       1.17980       0.18178       0.01788       3.37553       0.05000       1.00000       0.01000       0.00500       6.49021       0.00100      12.00000      50.00000       0.04000       1.00000       0.50000       0.50000       1.00000       1.00000       1.00000       1.00000       1.00000  
hydcha10                      null       0.85011       0.14908       0.02134       2.45582       0.05000       1.00000       0.01000       0.00500       5.70234       0.00100      12.00000      50.00000       0.04000       1.00000       0.50000       0.50000       1.00000       1.00000       1.00000       1.00000       1.00000  
hydcha11                      null       2.74921       0.30330       0.00645       0.80634       0.05000       1.00000       0.01000       0.00500       9.06443       0.00100      12.00000      50.00000       0.04000       1.00000       0.50000       0.50000       1.00000       1.00000       1.00000       1.00000       1.00000  
hydcha12                      null       1.09347       0.17361       0.00405       2.95721       0.05000       1.00000       0.01000       0.00500       6.29835       0.00100      12.00000      50.00000       0.04000       1.00000       0.50000       0.50000       1.00000       1.00000       1.00000       1.00000       1.00000  
hydcha13                      null       1.90965       0.24328       0.00628       3.82400       0.05000       1.00000       0.01000       0.00500       7.84960       0.00100      12.00000      50.00000       0.04000       1.00000       0.50000       0.50000       1.00000       1.00000       1.00000       1.00000       1.00000  
hydcha14                      null       1.23454       0.18684       0.00712       2.69173       0.05000       1.00000       0.01000       0.00500       6.60750       0.00100      12.00000      50.00000       0.04000       1.00000       0.50000       0.50000       1.00000       1.00000       1.00000       1.00000       1.00000  
hydcha15                      null       0.95779       0.16024       0.01437       0.27799       0.05000       1.00000       0.01000       0.00500       5.97733       0.00100      12.00000      50.00000       0.04000       1.00000       0.50000       0.50000       1.00000       1.00000       1.00000       1.00000       1.00000  
hydcha16                      null       1.29074       0.19194       0.02998       0.23878       0.05000       1.00000       0.01000       0.00500       6.72467       0.00100      12.00000      50.00000       0.04000       1.00000       0.50000       0.50000       1.00000       1.00000       1.00000       1.00000       1.00000  
hydcha17                      null       1.23454       0.18684       0.00001       0.01025       0.05000       1.00000       0.01000       0.00500       6.60750       0.00100      12.00000      50.00000       0.04000       1.00000       0.50000       0.50000       1.00000       1.00000       1.00000       1.00000       1.00000  
hydcha18                      null       2.89362       0.31284       0.00143       0.46572       0.05000       1.00000       0.01000       0.00500       9.24953       0.00100      12.00000      50.00000       0.04000       1.00000       0.50000       0.50000       1.00000       1.00000       1.00000       1.00000       1.00000  
hydcha19                      null       2.18726       0.26410       0.00586       1.65889       0.05000       1.00000       0.01000       0.00500       8.28180       0.00100      12.00000      50.00000       0.04000       1.00000       0.50000       0.50000       1.00000       1.00000       1.00000       1.00000       1.00000  
hydcha20                      null       3.63977       0.35943       0.00146       3.01021       0.05000       1.00000       0.01000       0.00500      10.12659       0.00100      12.00000      50.00000       0.04000       1.00000       0.50000       0.50000       1.00000       1.00000       1.00000       1.00000       1.00000  
hydcha21                      null       4.38516       0.40232       0.00127       0.35148       0.05000       1.00000       0.01000       0.00500      10.89969       0.00100      12.00000      50.00000       0.04000       1.00000       0.50000       0.50000       1.00000       1.00000       1.00000       1.00000       1.00000  
hydcha22                      null       4.27549       0.39620       0.00119       2.50424       0.05000       1.00000       0.01000       0.00500      10.79122       0.00100      12.00000      50.00000       0.04000       1.00000       0.50000       0.50000       1.00000       1.00000       1.00000       1.00000       1.00000  
hydcha23                      null       4.41510       0.40398       0.00120       1.16007       0.05000       1.00000       0.01000       0.00500      10.92902       0.00100      12.00000      50.00000       0.04000       1.00000       0.50000       0.50000       1.00000       1.00000       1.00000       1.00000       1.00000  
hydcha24                      null       4.40182       0.40324       0.00126       0.41366       0.05000       1.00000       0.01000       0.00500      10.91602       0.00100      12.00000      50.00000       0.04000       1.00000       0.50000       0.50000       1.00000       1.00000       1.00000       1.00000       1.00000  
hydcha25                      null       0.99924       0.16440       0.01280       2.16501       0.05000       1.00000       0.01000       0.00500       6.07816       0.00100      12.00000      50.00000       0.04000       1.00000       0.50000       0.50000       1.00000       1.00000       1.00000       1.00000       1.00000  
hydcha26                      null       4.13097       0.38804       0.00126       1.43105       0.05000       1.00000       0.01000       0.00500      10.64567       0.00100      12.00000      50.00000       0.04000       1.00000       0.50000       0.50000       1.00000       1.00000       1.00000       1.00000       1.00000  
hydcha27                      null       4.05497       0.38371       0.00098       4.19813       0.05000       1.00000       0.01000       0.00500      10.56791       0.00100      12.00000      50.00000       0.04000       1.00000       0.50000       0.50000       1.00000       1.00000       1.00000       1.00000       1.00000  
hydcha28                      null       1.32774       0.19525       0.00256       4.12567       0.05000       1.00000       0.01000       0.00500       6.80016       0.00100      12.00000      50.00000       0.04000       1.00000       0.50000       0.50000       1.00000       1.00000       1.00000       1.00000       1.00000  
hydcha29                      null       4.58611       0.41338       0.00118       2.69139       0.05000       1.00000       0.01000       0.00500      11.09425       0.00100      12.00000      50.00000       0.04000       1.00000       0.50000       0.50000       1.00000       1.00000       1.00000       1.00000       1.00000  
hydcha30                      null       4.52250       0.40990       0.00001       0.16091       0.05000       1.00000       0.01000       0.00500      11.03324       0.00100      12.00000      50.00000       0.04000       1.00000       0.50000       0.50000       1.00000       1.00000       1.00000       1.00000       1.00000  
hydcha31                      null       1.24945       0.18820       0.02186       2.30840       0.05000       1.00000       0.01000       0.00500       6.63890       0.00100      12.00000      50.00000       0.04000       1.00000       0.50000       0.50000       1.00000       1.00000       1.00000       1.00000       1.00000  
hydcha32                      null       1.21493       0.18504       0.01887       1.75518       0.05000       1.00000       0.01000       0.00500       6.56585       0.00100      12.00000      50.00000       0.04000       1.00000       0.50000       0.50000       1.00000       1.00000       1.00000       1.00000       1.00000  
hydcha33                      null       1.60640       0.21911       0.00877       2.31007       0.05000       1.00000       0.01000       0.00500       7.33148       0.00100      12.00000      50.00000       0.04000       1.00000       0.50000       0.50000       1.00000       1.00000       1.00000       1.00000       1.00000  
hydcha34                      null       4.60338       0.41432       0.00092       2.36859       0.05000       1.00000       0.01000       0.00500      11.11073       0.00100      12.00000      50.00000       0.04000       1.00000       0.50000       0.50000       1.00000       1.00000       1.00000       1.00000       1.00000  
hydcha35                      null       0.59226       0.11980       0.07303       1.15589       0.05000       1.00000       0.01000       0.00500       4.94393       0.00100      12.00000      50.00000       0.04000       1.00000       0.50000       0.50000       1.00000       1.00000       1.00000       1.00000       1.00000  
hydcha36                      null       4.75534       0.42254       0.00001       0.02550       0.05000       1.00000       0.01000       0.00500      11.25415       0.00100      12.00000      50.00000       0.04000       1.00000       0.50000       0.50000       1.00000       1.00000       1.00000       1.00000       1.00000  
hydcha37                      null       1.70766       0.22737       0.00820       0.84210       0.05000       1.00000       0.01000       0.00500       7.51061       0.00100      12.00000      50.00000       0.04000       1.00000       0.50000       0.50000       1.00000       1.00000       1.00000       1.00000       1.00000  
hydcha38                      null       1.40089       0.20169       0.01666       2.72215       0.05000       1.00000       0.01000       0.00500       6.94570       0.00100      12.00000      50.00000       0.04000       1.00000       0.50000       0.50000       1.00000       1.00000       1.00000       1.00000       1.00000  
hydcha39                      null       2.16108       0.26219       0.00931       3.19070       0.05000       1.00000       0.01000       0.00500       8.24252       0.00100      12.00000      50.00000       0.04000       1.00000       0.50000       0.50000       1.00000       1.00000       1.00000       1.00000       1.00000  
hydcha40                      null       1.62680       0.22079       0.01077       1.20810       0.05000       1.00000       0.01000       0.00500       7.36810       0.00100      12.00000      50.00000       0.04000       1.00000       0.50000       0.50000       1.00000       1.00000       1.00000       1.00000       1.00000  
hydcha41                      null       1.62680       0.22079       0.01144       2.62468       0.05000       1.00000       0.01000       0.00500       7.36810       0.00100      12.00000      50.00000       0.04000       1.00000       0.50000       0.50000       1.00000       1.00000       1.00000       1.00000       1.00000  
hydcha42                      null       1.90388       0.24284       0.02140       1.96284       0.05000       1.00000       0.01000       0.00500       7.84023       0.00100      12.00000      50.00000       0.04000       1.00000       0.50000       0.50000       1.00000       1.00000       1.00000       1.00000       1.00000  
hydcha43                      null       1.81306       0.23576       0.00991       0.64653       0.05000       1.00000       0.01000       0.00500       7.69035       0.00100      12.00000      50.00000       0.04000       1.00000       0.50000       0.50000       1.00000       1.00000       1.00000       1.00000       1.00000  
hydcha44                      null       1.56694       0.21584       0.02667       1.25612       0.05000       1.00000       0.01000       0.00500       7.25983       0.00100      12.00000      50.00000       0.04000       1.00000       0.50000       0.50000       1.00000       1.00000       1.00000       1.00000       1.00000  
hydcha45                      null       1.55478       0.21482       0.02020       0.34694       0.05000       1.00000       0.01000       0.00500       7.23752       0.00100      12.00000      50.00000       0.04000       1.00000       0.50000       0.50000       1.00000       1.00000       1.00000       1.00000       1.00000  
hydcha46                      null       1.09317       0.17358       0.01134       2.06275       0.05000       1.00000       0.01000       0.00500       6.29768       0.00100      12.00000      50.00000       0.04000       1.00000       0.50000       0.50000       1.00000       1.00000       1.00000       1.00000       1.00000  
hydcha47                      null       1.13686       0.17775       0.03025       2.93196       0.05000       1.00000       0.01000       0.00500       6.39588       0.00100      12.00000      50.00000       0.04000       1.00000       0.50000       0.50000       1.00000       1.00000       1.00000       1.00000       1.00000  
