landuse.lum: written by SWAT+ editor v2.2.0 on 2024-06-05 07:19 for SWAT+ rev.60.5.4, edited manually on 2024-07-22 13:07:05.110231 and edited with SWATfarmR 2.0.5 on 2024-07-22 15:04:27.338744
name                         cal_group          plnt_com               mgt               cn2         cons_prac             urban            urb_ro           ov_mann              tile               sep               vfs              grww               bmp
field_100_lum_919_1               null field_100_comm_919_1 field_100_mgt_919_1        rc_strow_p     up_down_slope              null              null    convtill_nores              null              null              null              null              null
field_101_lum_921_1               null field_101_comm_921_1 field_101_mgt_921_1        rc_strow_p     up_down_slope              null              null    convtill_nores              null              null              null              null              null
field_102_lum_923_1               null field_102_comm_923_1 field_102_mgt_923_1        rc_strow_p     up_down_slope              null              null    convtill_nores              null              null              null              null              null
field_103_lum_924_1               null field_103_comm_924_1 field_103_mgt_924_1        rc_strow_p     up_down_slope              null              null    convtill_nores              null              null              null              null              null
field_104_lum_926_1               null field_104_comm_926_1 field_104_mgt_926_1        rc_strow_p     up_down_slope              null              null    convtill_nores              null              null              null              null              null
field_105_lum_930_1               null field_105_comm_930_1 field_105_mgt_930_1        rc_strow_p     up_down_slope              null              null    convtill_nores              null              null              null              null              null
field_106_lum_937_1               null field_106_comm_937_1 field_106_mgt_937_1        rc_strow_p     up_down_slope              null              null    convtill_nores              null              null              null              null              null
field_107_lum_940_1               null field_107_comm_940_1 field_107_mgt_940_1        rc_strow_p     up_down_slope              null              null    convtill_nores              null              null              null              null              null
field_108_lum_943_1               null field_108_comm_943_1 field_108_mgt_943_1        rc_strow_p     up_down_slope              null              null    convtill_nores              null              null              null              null              null
field_109_lum_951_1               null field_109_comm_951_1 field_109_mgt_951_1        rc_strow_p     up_down_slope              null              null    convtill_nores              null              null              null              null              null
field_10_lum_181_1                null field_10_comm_181_1 field_10_mgt_181_1        rc_strow_p     up_down_slope              null              null    convtill_nores              null              null              null              null              null
field_110_lum_954_1               null field_110_comm_954_1 field_110_mgt_954_1        rc_strow_p     up_down_slope              null              null    convtill_nores              null              null              null              null              null
field_111_lum_956_1               null field_111_comm_956_1 field_111_mgt_956_1        rc_strow_p     up_down_slope              null              null    convtill_nores              null              null              null              null              null
field_112_lum_957_1               null field_112_comm_957_1 field_112_mgt_957_1        rc_strow_p     up_down_slope              null              null    convtill_nores              null              null              null              null              null
field_113_lum_959_1               null field_113_comm_959_1 field_113_mgt_959_1        rc_strow_p     up_down_slope              null              null    convtill_nores              null              null              null              null              null
field_114_lum_960_1               null field_114_comm_960_1 field_114_mgt_960_1        rc_strow_p     up_down_slope              null              null    convtill_nores              null              null              null              null              null
field_115_lum_961_1               null field_115_comm_961_1 field_115_mgt_961_1        rc_strow_p     up_down_slope              null              null    convtill_nores              null              null              null              null              null
field_116_lum_963_1               null field_116_comm_963_1 field_116_mgt_963_1        rc_strow_p     up_down_slope              null              null    convtill_nores              null              null              null              null              null
field_117_lum_966_1               null field_117_comm_966_1 field_117_mgt_966_1     rc_strowres_g       cross_slope              null              null      chisplow_res              null              null              null              null              null
field_118_lum_967_1               null field_118_comm_967_1 field_118_mgt_967_1        rc_strow_p     up_down_slope              null              null    convtill_nores              null              null              null              null              null
field_119_lum_969_1               null field_119_comm_969_1 field_119_mgt_969_1        rc_strow_p     up_down_slope              null              null    convtill_nores              null              null              null              null              null
field_11_lum_186_1                null field_11_comm_186_1 field_11_mgt_186_1        rc_strow_p     up_down_slope              null              null    convtill_nores              null              null              null              null              null
field_120_lum_972_1               null field_120_comm_972_1 field_120_mgt_972_1        rc_strow_p     up_down_slope              null              null    convtill_nores              null              null              null              null              null
field_121_lum_974_1               null field_121_comm_974_1 field_121_mgt_974_1        rc_strow_p     up_down_slope              null              null    convtill_nores              null              null              null              null              null
field_122_lum_976_1               null field_122_comm_976_1 field_122_mgt_976_1        rc_strow_p     up_down_slope              null              null    convtill_nores              null              null              null              null              null
field_123_lum_979_1               null field_123_comm_979_1 field_123_mgt_979_1     rc_strowres_g       cross_slope              null              null      chisplow_res              null              null              null              null              null
field_124_lum_980_1               null field_124_comm_980_1 field_124_mgt_980_1        rc_strow_p     up_down_slope              null              null    convtill_nores              null              null              null              null              null
field_125_lum_981_1               null field_125_comm_981_1 field_125_mgt_981_1        rc_strow_p     up_down_slope              null              null    convtill_nores              null              null              null              null              null
field_126_lum_982_1               null field_126_comm_982_1 field_126_mgt_982_1        rc_strow_p     up_down_slope              null              null    convtill_nores              null              null              null              null              null
field_127_lum_984_1               null field_127_comm_984_1 field_127_mgt_984_1        rc_strow_p     up_down_slope              null              null    convtill_nores              null              null              null              null              null
field_128_lum_985_1               null field_128_comm_985_1 field_128_mgt_985_1        rc_strow_p     up_down_slope              null              null    convtill_nores              null              null              null              null              null
field_129_lum_986_1               null field_129_comm_986_1 field_129_mgt_986_1        rc_strow_p     up_down_slope              null              null    convtill_nores              null              null              null              null              null
field_12_lum_199_1                null field_12_comm_199_1 field_12_mgt_199_1        rc_strow_p     up_down_slope              null              null    convtill_nores              null              null              null              null              null
field_130_lum_987_1               null field_130_comm_987_1 field_130_mgt_987_1        rc_strow_p     up_down_slope              null              null    convtill_nores              null              null              null              null              null
field_131_lum_989_1               null field_131_comm_989_1 field_131_mgt_989_1        rc_strow_p     up_down_slope              null              null    convtill_nores              null              null              null              null              null
field_132_lum_996_1               null field_132_comm_996_1 field_132_mgt_996_1        rc_strow_p     up_down_slope              null              null    convtill_nores              null              null              null              null              null
field_133_lum_1003_1              null field_133_comm_1003_1 field_133_mgt_1003_1        rc_strow_p     up_down_slope              null              null    convtill_nores              null              null              null              null              null
field_134_lum_1008_1              null field_134_comm_1008_1 field_134_mgt_1008_1        rc_strow_p     up_down_slope              null              null    convtill_nores              null              null              null              null              null
field_135_lum_1021_1              null field_135_comm_1021_1 field_135_mgt_1021_1        rc_strow_p     up_down_slope              null              null    convtill_nores              null              null              null              null              null
field_136_lum_1022_1              null field_136_comm_1022_1 field_136_mgt_1022_1        rc_strow_p     up_down_slope              null              null    convtill_nores              null              null              null              null              null
field_137_lum_1023_1              null field_137_comm_1023_1 field_137_mgt_1023_1        rc_strow_p     up_down_slope              null              null    convtill_nores              null              null              null              null              null
field_138_lum_1024_1              null field_138_comm_1024_1 field_138_mgt_1024_1        rc_strow_p     up_down_slope              null              null    convtill_nores              null              null              null              null              null
field_139_lum_1028_1              null field_139_comm_1028_1 field_139_mgt_1028_1        rc_strow_p     up_down_slope              null              null    convtill_nores              null              null              null              null              null
field_13_lum_233_1                null field_13_comm_233_1 field_13_mgt_233_1        rc_strow_p     up_down_slope              null              null    convtill_nores              null              null              null              null              null
field_140_lum_1030_1              null field_140_comm_1030_1 field_140_mgt_1030_1     rc_strowres_g       cross_slope              null              null      chisplow_res              null              null              null              null              null
field_141_lum_1034_1              null field_141_comm_1034_1 field_141_mgt_1034_1     rc_strowres_g       cross_slope              null              null      chisplow_res              null              null              null              null              null
field_142_lum_1035_1              null field_142_comm_1035_1 field_142_mgt_1035_1        rc_strow_p     up_down_slope              null              null    convtill_nores              null              null              null              null              null
field_143_lum_1051_1              null field_143_comm_1051_1 field_143_mgt_1051_1        rc_strow_p     up_down_slope              null              null    convtill_nores              null              null              null              null              null
field_144_lum_1057_1              null field_144_comm_1057_1 field_144_mgt_1057_1        rc_strow_p     up_down_slope              null              null    convtill_nores              null              null              null              null              null
field_145_lum_1058_1              null field_145_comm_1058_1 field_145_mgt_1058_1        rc_strow_p     up_down_slope              null              null    convtill_nores              null              null              null              null              null
field_146_lum_1065_1              null field_146_comm_1065_1 field_146_mgt_1065_1        rc_strow_p     up_down_slope              null              null    convtill_nores              null              null              null              null              null
field_147_lum_1072_1              null field_147_comm_1072_1 field_147_mgt_1072_1        rc_strow_p     up_down_slope              null              null    convtill_nores              null              null              null              null              null
field_148_lum_1076_1              null field_148_comm_1076_1 field_148_mgt_1076_1     rc_strowres_g       cross_slope              null              null      chisplow_res              null              null              null              null              null
field_149_lum_1077_1              null field_149_comm_1077_1 field_149_mgt_1077_1        rc_strow_p     up_down_slope              null              null    convtill_nores              null              null              null              null              null
field_14_lum_257_1                null field_14_comm_257_1 field_14_mgt_257_1        rc_strow_p     up_down_slope              null              null    convtill_nores              null              null              null              null              null
field_150_lum_1078_1              null field_150_comm_1078_1 field_150_mgt_1078_1        rc_strow_p     up_down_slope              null              null    convtill_nores              null              null              null              null              null
field_151_lum_1079_1              null field_151_comm_1079_1 field_151_mgt_1079_1        rc_strow_p     up_down_slope              null              null    convtill_nores              null              null              null              null              null
field_152_lum_1083_1              null field_152_comm_1083_1 field_152_mgt_1083_1        rc_strow_p     up_down_slope              null              null    convtill_nores              null              null              null              null              null
field_153_lum_1085_1              null field_153_comm_1085_1 field_153_mgt_1085_1     rc_strowres_g       cross_slope              null              null      chisplow_res              null              null              null              null              null
field_154_lum_1089_1              null field_154_comm_1089_1 field_154_mgt_1089_1        rc_strow_p     up_down_slope              null              null    convtill_nores              null              null              null              null              null
field_155_lum_1101_1              null field_155_comm_1101_1 field_155_mgt_1101_1        rc_strow_p     up_down_slope              null              null    convtill_nores              null              null              null              null              null
field_156_lum_1102_1              null field_156_comm_1102_1 field_156_mgt_1102_1        rc_strow_p     up_down_slope              null              null    convtill_nores              null              null              null              null              null
field_157_lum_1104_1              null field_157_comm_1104_1 field_157_mgt_1104_1        rc_strow_p     up_down_slope              null              null    convtill_nores              null              null              null              null              null
field_158_lum_1123_1              null field_158_comm_1123_1 field_158_mgt_1123_1        rc_strow_p     up_down_slope              null              null    convtill_nores              null              null              null              null              null
field_159_lum_1141_1              null field_159_comm_1141_1 field_159_mgt_1141_1        rc_strow_p     up_down_slope              null              null    convtill_nores              null              null              null              null              null
field_15_lum_262_1                null field_15_comm_262_1 field_15_mgt_262_1        rc_strow_p     up_down_slope              null              null    convtill_nores              null              null              null              null              null
field_160_lum_1142_1              null field_160_comm_1142_1 field_160_mgt_1142_1        rc_strow_p     up_down_slope              null              null    convtill_nores              null              null              null              null              null
field_161_lum_1144_1              null field_161_comm_1144_1 field_161_mgt_1144_1        rc_strow_p     up_down_slope              null              null    convtill_nores              null              null              null              null              null
field_162_lum_1145_1              null field_162_comm_1145_1 field_162_mgt_1145_1        rc_strow_p     up_down_slope              null              null    convtill_nores              null              null              null              null              null
field_163_lum_1174_1              null field_163_comm_1174_1 field_163_mgt_1174_1        rc_strow_p     up_down_slope              null              null    convtill_nores              null              null              null              null              null
field_164_lum_1187_1              null field_164_comm_1187_1 field_164_mgt_1187_1        rc_strow_p     up_down_slope              null              null    convtill_nores              null              null              null              null              null
field_165_lum_1189_1              null field_165_comm_1189_1 field_165_mgt_1189_1        rc_strow_p     up_down_slope              null              null    convtill_nores              null              null              null              null              null
field_166_lum_1203_1              null field_166_comm_1203_1 field_166_mgt_1203_1        rc_strow_p     up_down_slope              null              null    convtill_nores              null              null              null              null              null
field_167_lum_1204_1              null field_167_comm_1204_1 field_167_mgt_1204_1        rc_strow_p     up_down_slope              null              null    convtill_nores              null              null              null              null              null
field_168_lum_1205_1              null field_168_comm_1205_1 field_168_mgt_1205_1        rc_strow_p     up_down_slope              null              null    convtill_nores              null              null              null              null              null
field_169_lum_1208_1              null field_169_comm_1208_1 field_169_mgt_1208_1        rc_strow_p     up_down_slope              null              null    convtill_nores              null              null              null              null              null
field_16_lum_268_1                null field_16_comm_268_1 field_16_mgt_268_1        rc_strow_p     up_down_slope              null              null    convtill_nores              null              null              null              null              null
field_170_lum_1209_1              null field_170_comm_1209_1 field_170_mgt_1209_1        rc_strow_p     up_down_slope              null              null    convtill_nores              null              null              null              null              null
field_171_lum_1210_1              null field_171_comm_1210_1 field_171_mgt_1210_1        rc_strow_p     up_down_slope              null              null    convtill_nores              null              null              null              null              null
field_172_lum_1211_1              null field_172_comm_1211_1 field_172_mgt_1211_1        rc_strow_p     up_down_slope              null              null    convtill_nores              null              null              null              null              null
field_173_lum_1214_1              null field_173_comm_1214_1 field_173_mgt_1214_1        rc_strow_p     up_down_slope              null              null    convtill_nores              null              null              null              null              null
field_174_lum_1216_1              null field_174_comm_1216_1 field_174_mgt_1216_1        rc_strow_p     up_down_slope              null              null    convtill_nores              null              null              null              null              null
field_175_lum_1217_1              null field_175_comm_1217_1 field_175_mgt_1217_1        rc_strow_p     up_down_slope              null              null    convtill_nores              null              null              null              null              null
field_176_lum_1219_1              null field_176_comm_1219_1 field_176_mgt_1219_1        rc_strow_p     up_down_slope              null              null    convtill_nores              null              null              null              null              null
field_177_lum_1220_1              null field_177_comm_1220_1 field_177_mgt_1220_1        rc_strow_p     up_down_slope              null              null    convtill_nores              null              null              null              null              null
field_178_lum_1226_1              null field_178_comm_1226_1 field_178_mgt_1226_1        rc_strow_p     up_down_slope              null              null    convtill_nores              null              null              null              null              null
field_179_lum_1230_1              null field_179_comm_1230_1 field_179_mgt_1230_1        rc_strow_p     up_down_slope              null              null    convtill_nores              null              null              null              null              null
field_17_lum_269_1                null field_17_comm_269_1 field_17_mgt_269_1        rc_strow_p     up_down_slope              null              null    convtill_nores              null              null              null              null              null
field_180_lum_1232_1              null field_180_comm_1232_1 field_180_mgt_1232_1        rc_strow_p     up_down_slope              null              null    convtill_nores              null              null              null              null              null
field_181_lum_1235_1              null field_181_comm_1235_1 field_181_mgt_1235_1        rc_strow_p     up_down_slope              null              null    convtill_nores              null              null              null              null              null
field_182_lum_1236_1              null field_182_comm_1236_1 field_182_mgt_1236_1        rc_strow_p     up_down_slope              null              null    convtill_nores              null              null              null              null              null
field_183_lum_1241_1              null field_183_comm_1241_1 field_183_mgt_1241_1        rc_strow_p     up_down_slope              null              null    convtill_nores              null              null              null              null              null
field_184_lum_1244_1              null field_184_comm_1244_1 field_184_mgt_1244_1        rc_strow_p     up_down_slope              null              null    convtill_nores              null              null              null              null              null
field_185_lum_1245_1              null field_185_comm_1245_1 field_185_mgt_1245_1        rc_strow_p     up_down_slope              null              null    convtill_nores              null              null              null              null              null
field_186_lum_1246_1              null field_186_comm_1246_1 field_186_mgt_1246_1        rc_strow_p     up_down_slope              null              null    convtill_nores              null              null              null              null              null
field_187_lum_1251_1              null field_187_comm_1251_1 field_187_mgt_1251_1        rc_strow_p     up_down_slope              null              null    convtill_nores              null              null              null              null              null
field_188_lum_1252_1              null field_188_comm_1252_1 field_188_mgt_1252_1        rc_strow_p     up_down_slope              null              null    convtill_nores              null              null              null              null              null
field_189_lum_1256_1              null field_189_comm_1256_1 field_189_mgt_1256_1        rc_strow_p     up_down_slope              null              null    convtill_nores              null              null              null              null              null
field_18_lum_277_1                null field_18_comm_277_1 field_18_mgt_277_1        rc_strow_p     up_down_slope              null              null    convtill_nores              null              null              null              null              null
field_190_lum_1259_1              null field_190_comm_1259_1 field_190_mgt_1259_1        rc_strow_p     up_down_slope              null              null    convtill_nores              null              null              null              null              null
field_191_lum_1264_1              null field_191_comm_1264_1 field_191_mgt_1264_1        rc_strow_p     up_down_slope              null              null    convtill_nores              null              null              null              null              null
field_192_lum_1272_1              null field_192_comm_1272_1 field_192_mgt_1272_1        rc_strow_p     up_down_slope              null              null    convtill_nores              null              null              null              null              null
field_193_lum_1276_1              null field_193_comm_1276_1 field_193_mgt_1276_1        rc_strow_p     up_down_slope              null              null    convtill_nores              null              null              null              null              null
field_194_lum_1277_1              null field_194_comm_1277_1 field_194_mgt_1277_1        rc_strow_p     up_down_slope              null              null    convtill_nores              null              null              null              null              null
field_195_lum_1278_1              null field_195_comm_1278_1 field_195_mgt_1278_1        rc_strow_p     up_down_slope              null              null    convtill_nores              null              null              null              null              null
field_196_lum_1280_1              null field_196_comm_1280_1 field_196_mgt_1280_1        rc_strow_p     up_down_slope              null              null    convtill_nores              null              null              null              null              null
field_197_lum_1283_1              null field_197_comm_1283_1 field_197_mgt_1283_1        rc_strow_p     up_down_slope              null              null    convtill_nores              null              null              null              null              null
field_198_lum_1299_1              null field_198_comm_1299_1 field_198_mgt_1299_1        rc_strow_p     up_down_slope              null              null    convtill_nores              null              null              null              null              null
field_199_lum_1300_1              null field_199_comm_1300_1 field_199_mgt_1300_1     rc_strowres_g       cross_slope              null              null      chisplow_res              null              null              null              null              null
field_19_lum_285_1                null field_19_comm_285_1 field_19_mgt_285_1        rc_strow_p     up_down_slope              null              null    convtill_nores              null              null              null              null              null
field_1_lum_7_1                   null  field_1_comm_7_1   field_1_mgt_7_1        rc_strow_p     up_down_slope              null              null    convtill_nores              null              null              null              null              null
field_200_lum_1301_1              null field_200_comm_1301_1 field_200_mgt_1301_1        rc_strow_p     up_down_slope              null              null    convtill_nores              null              null              null              null              null
field_201_lum_1305_1              null field_201_comm_1305_1 field_201_mgt_1305_1        rc_strow_p     up_down_slope              null              null    convtill_nores              null              null              null              null              null