landuse.lum: written by SWAT+ editor v2.2.0 on 2024-06-05 07:19 for SWAT+ rev.60.5.4, edited manually on 2024-07-22 13:07:05.110231 and edited with SWATfarmR 2.0.5 on 2024-07-23 08:14:28
name                         cal_group          plnt_com               mgt               cn2         cons_prac             urban            urb_ro           ov_mann              tile               sep               vfs              grww               bmp
field_100_lum                     null     field_100_com     field_100_mgt        rc_strow_p     up_down_slope              null              null    convtill_nores              null              null              null              null              null
field_101_lum                     null     field_101_com     field_101_mgt        rc_strow_p     up_down_slope              null              null    convtill_nores              null              null              null              null              null
field_102_lum                     null     field_102_com     field_102_mgt        rc_strow_p     up_down_slope              null              null    convtill_nores              null              null              null              null              null
field_103_lum                     null     field_103_com     field_103_mgt        rc_strow_p     up_down_slope              null              null    convtill_nores              null              null              null              null              null
field_104_lum                     null     field_104_com     field_104_mgt        rc_strow_p     up_down_slope              null              null    convtill_nores              null              null              null              null              null
field_105_lum                     null     field_105_com     field_105_mgt        rc_strow_p     up_down_slope              null              null    convtill_nores              null              null              null              null              null
field_106_lum                     null     field_106_com     field_106_mgt        rc_strow_p     up_down_slope              null              null    convtill_nores              null              null              null              null              null
field_107_lum                     null     field_107_com     field_107_mgt        rc_strow_p     up_down_slope              null              null    convtill_nores              null              null              null              null              null
field_108_lum                     null     field_108_com     field_108_mgt        rc_strow_p     up_down_slope              null              null    convtill_nores              null              null              null              null              null
field_109_lum                     null     field_109_com     field_109_mgt        rc_strow_p     up_down_slope              null              null    convtill_nores              null              null              null              null              null
field_10_lum                      null      field_10_com      field_10_mgt        rc_strow_p     up_down_slope              null              null    convtill_nores              null              null              null              null              null
field_110_lum                     null     field_110_com     field_110_mgt        rc_strow_p     up_down_slope              null              null    convtill_nores              null              null              null              null              null
field_111_lum                     null     field_111_com     field_111_mgt        rc_strow_p     up_down_slope              null              null    convtill_nores              null              null              null              null              null
field_112_lum                     null     field_112_com     field_112_mgt        rc_strow_p     up_down_slope              null              null    convtill_nores              null              null              null              null              null
field_113_lum                     null     field_113_com     field_113_mgt        rc_strow_p     up_down_slope              null              null    convtill_nores              null              null              null              null              null
field_114_lum                     null     field_114_com     field_114_mgt        rc_strow_p     up_down_slope              null              null    convtill_nores              null              null              null              null              null
field_115_lum                     null     field_115_com     field_115_mgt        rc_strow_p     up_down_slope              null              null    convtill_nores              null              null              null              null              null
field_116_lum                     null     field_116_com     field_116_mgt        rc_strow_p     up_down_slope              null              null    convtill_nores              null              null              null              null              null
field_117_lum                     null     field_117_com     field_117_mgt     rc_strowres_g       cross_slope              null              null      chisplow_res              null              null              null              null              null
field_118_lum                     null     field_118_com     field_118_mgt        rc_strow_p     up_down_slope              null              null    convtill_nores              null              null              null              null              null
field_119_lum                     null     field_119_com     field_119_mgt        rc_strow_p     up_down_slope              null              null    convtill_nores              null              null              null              null              null
field_11_lum                      null      field_11_com      field_11_mgt        rc_strow_p     up_down_slope              null              null    convtill_nores              null              null              null              null              null
field_120_lum                     null     field_120_com     field_120_mgt        rc_strow_p     up_down_slope              null              null    convtill_nores              null              null              null              null              null
field_121_lum                     null     field_121_com     field_121_mgt        rc_strow_p     up_down_slope              null              null    convtill_nores              null              null              null              null              null
field_122_lum                     null     field_122_com     field_122_mgt        rc_strow_p     up_down_slope              null              null    convtill_nores              null              null              null              null              null
field_123_lum                     null     field_123_com     field_123_mgt     rc_strowres_g       cross_slope              null              null      chisplow_res              null              null              null              null              null
field_124_lum                     null     field_124_com     field_124_mgt        rc_strow_p     up_down_slope              null              null    convtill_nores              null              null              null              null              null
field_125_lum                     null     field_125_com     field_125_mgt        rc_strow_p     up_down_slope              null              null    convtill_nores              null              null              null              null              null
field_126_lum                     null     field_126_com     field_126_mgt        rc_strow_p     up_down_slope              null              null    convtill_nores              null              null              null              null              null
field_127_lum                     null     field_127_com     field_127_mgt        rc_strow_p     up_down_slope              null              null    convtill_nores              null              null              null              null              null
field_128_lum                     null     field_128_com     field_128_mgt        rc_strow_p     up_down_slope              null              null    convtill_nores              null              null              null              null              null
field_129_lum                     null     field_129_com     field_129_mgt        rc_strow_p     up_down_slope              null              null    convtill_nores              null              null              null              null              null
field_12_lum                      null      field_12_com      field_12_mgt        rc_strow_p     up_down_slope              null              null    convtill_nores              null              null              null              null              null
field_130_lum                     null     field_130_com     field_130_mgt        rc_strow_p     up_down_slope              null              null    convtill_nores              null              null              null              null              null
field_131_lum                     null     field_131_com     field_131_mgt        rc_strow_p     up_down_slope              null              null    convtill_nores              null              null              null              null              null
field_132_lum                     null     field_132_com     field_132_mgt        rc_strow_p     up_down_slope              null              null    convtill_nores              null              null              null              null              null
field_133_lum                     null     field_133_com     field_133_mgt        rc_strow_p     up_down_slope              null              null    convtill_nores              null              null              null              null              null
field_134_lum                     null     field_134_com     field_134_mgt        rc_strow_p     up_down_slope              null              null    convtill_nores              null              null              null              null              null
field_135_lum                     null     field_135_com     field_135_mgt        rc_strow_p     up_down_slope              null              null    convtill_nores              null              null              null              null              null
field_136_lum                     null     field_136_com     field_136_mgt        rc_strow_p     up_down_slope              null              null    convtill_nores              null              null              null              null              null
field_137_lum                     null     field_137_com     field_137_mgt        rc_strow_p     up_down_slope              null              null    convtill_nores              null              null              null              null              null
field_138_lum                     null     field_138_com     field_138_mgt        rc_strow_p     up_down_slope              null              null    convtill_nores              null              null              null              null              null
field_139_lum                     null     field_139_com     field_139_mgt        rc_strow_p     up_down_slope              null              null    convtill_nores              null              null              null              null              null
field_13_lum                      null      field_13_com      field_13_mgt        rc_strow_p     up_down_slope              null              null    convtill_nores              null              null              null              null              null
field_140_lum                     null     field_140_com     field_140_mgt     rc_strowres_g       cross_slope              null              null      chisplow_res              null              null              null              null              null
field_141_lum                     null     field_141_com     field_141_mgt     rc_strowres_g       cross_slope              null              null      chisplow_res              null              null              null              null              null
field_142_lum                     null     field_142_com     field_142_mgt        rc_strow_p     up_down_slope              null              null    convtill_nores              null              null              null              null              null
field_143_lum                     null     field_143_com     field_143_mgt        rc_strow_p     up_down_slope              null              null    convtill_nores              null              null              null              null              null
field_144_lum                     null     field_144_com     field_144_mgt        rc_strow_p     up_down_slope              null              null    convtill_nores              null              null              null              null              null
field_145_lum                     null     field_145_com     field_145_mgt        rc_strow_p     up_down_slope              null              null    convtill_nores              null              null              null              null              null
field_146_lum                     null     field_146_com     field_146_mgt        rc_strow_p     up_down_slope              null              null    convtill_nores              null              null              null              null              null
field_147_lum                     null     field_147_com     field_147_mgt        rc_strow_p     up_down_slope              null              null    convtill_nores              null              null              null              null              null
field_148_lum                     null     field_148_com     field_148_mgt     rc_strowres_g       cross_slope              null              null      chisplow_res              null              null              null              null              null
field_149_lum                     null     field_149_com     field_149_mgt        rc_strow_p     up_down_slope              null              null    convtill_nores              null              null              null              null              null
field_14_lum                      null      field_14_com      field_14_mgt        rc_strow_p     up_down_slope              null              null    convtill_nores              null              null              null              null              null
field_150_lum                     null     field_150_com     field_150_mgt        rc_strow_p     up_down_slope              null              null    convtill_nores              null              null              null              null              null
field_151_lum                     null     field_151_com     field_151_mgt        rc_strow_p     up_down_slope              null              null    convtill_nores              null              null              null              null              null
field_152_lum                     null     field_152_com     field_152_mgt        rc_strow_p     up_down_slope              null              null    convtill_nores              null              null              null              null              null
field_153_lum                     null     field_153_com     field_153_mgt     rc_strowres_g       cross_slope              null              null      chisplow_res              null              null              null              null              null
field_154_lum                     null     field_154_com     field_154_mgt        rc_strow_p     up_down_slope              null              null    convtill_nores              null              null              null              null              null
field_155_lum                     null     field_155_com     field_155_mgt        rc_strow_p     up_down_slope              null              null    convtill_nores              null              null              null              null              null
field_156_lum                     null     field_156_com     field_156_mgt        rc_strow_p     up_down_slope              null              null    convtill_nores              null              null              null              null              null
field_157_lum                     null     field_157_com     field_157_mgt        rc_strow_p     up_down_slope              null              null    convtill_nores              null              null              null              null              null
field_158_lum                     null     field_158_com     field_158_mgt        rc_strow_p     up_down_slope              null              null    convtill_nores              null              null              null              null              null
field_159_lum                     null     field_159_com     field_159_mgt        rc_strow_p     up_down_slope              null              null    convtill_nores              null              null              null              null              null
field_15_lum                      null      field_15_com      field_15_mgt        rc_strow_p     up_down_slope              null              null    convtill_nores              null              null              null              null              null
field_160_lum                     null     field_160_com     field_160_mgt        rc_strow_p     up_down_slope              null              null    convtill_nores              null              null              null              null              null
field_161_lum                     null     field_161_com     field_161_mgt        rc_strow_p     up_down_slope              null              null    convtill_nores              null              null              null              null              null
field_162_lum                     null     field_162_com     field_162_mgt        rc_strow_p     up_down_slope              null              null    convtill_nores              null              null              null              null              null
field_163_lum                     null     field_163_com     field_163_mgt        rc_strow_p     up_down_slope              null              null    convtill_nores              null              null              null              null              null
field_164_lum                     null     field_164_com     field_164_mgt        rc_strow_p     up_down_slope              null              null    convtill_nores              null              null              null              null              null
field_165_lum                     null     field_165_com     field_165_mgt        rc_strow_p     up_down_slope              null              null    convtill_nores              null              null              null              null              null
field_166_lum                     null     field_166_com     field_166_mgt        rc_strow_p     up_down_slope              null              null    convtill_nores              null              null              null              null              null
field_167_lum                     null     field_167_com     field_167_mgt        rc_strow_p     up_down_slope              null              null    convtill_nores              null              null              null              null              null
field_168_lum                     null     field_168_com     field_168_mgt        rc_strow_p     up_down_slope              null              null    convtill_nores              null              null              null              null              null
field_169_lum                     null     field_169_com     field_169_mgt        rc_strow_p     up_down_slope              null              null    convtill_nores              null              null              null              null              null
field_16_lum                      null      field_16_com      field_16_mgt        rc_strow_p     up_down_slope              null              null    convtill_nores              null              null              null              null              null
field_170_lum                     null     field_170_com     field_170_mgt        rc_strow_p     up_down_slope              null              null    convtill_nores              null              null              null              null              null
field_171_lum                     null     field_171_com     field_171_mgt        rc_strow_p     up_down_slope              null              null    convtill_nores              null              null              null              null              null
field_172_lum                     null     field_172_com     field_172_mgt        rc_strow_p     up_down_slope              null              null    convtill_nores              null              null              null              null              null
field_173_lum                     null     field_173_com     field_173_mgt        rc_strow_p     up_down_slope              null              null    convtill_nores              null              null              null              null              null
field_174_lum                     null     field_174_com     field_174_mgt        rc_strow_p     up_down_slope              null              null    convtill_nores              null              null              null              null              null
field_175_lum                     null     field_175_com     field_175_mgt        rc_strow_p     up_down_slope              null              null    convtill_nores              null              null              null              null              null
field_176_lum                     null     field_176_com     field_176_mgt        rc_strow_p     up_down_slope              null              null    convtill_nores              null              null              null              null              null
field_177_lum                     null     field_177_com     field_177_mgt        rc_strow_p     up_down_slope              null              null    convtill_nores              null              null              null              null              null
field_178_lum                     null     field_178_com     field_178_mgt        rc_strow_p     up_down_slope              null              null    convtill_nores              null              null              null              null              null
field_179_lum                     null     field_179_com     field_179_mgt        rc_strow_p     up_down_slope              null              null    convtill_nores              null              null              null              null              null
field_17_lum                      null      field_17_com      field_17_mgt        rc_strow_p     up_down_slope              null              null    convtill_nores              null              null              null              null              null
field_180_lum                     null     field_180_com     field_180_mgt        rc_strow_p     up_down_slope              null              null    convtill_nores              null              null              null              null              null
field_181_lum                     null     field_181_com     field_181_mgt        rc_strow_p     up_down_slope              null              null    convtill_nores              null              null              null              null              null
field_182_lum                     null     field_182_com     field_182_mgt        rc_strow_p     up_down_slope              null              null    convtill_nores              null              null              null              null              null
field_183_lum                     null     field_183_com     field_183_mgt        rc_strow_p     up_down_slope              null              null    convtill_nores              null              null              null              null              null
field_184_lum                     null     field_184_com     field_184_mgt        rc_strow_p     up_down_slope              null              null    convtill_nores              null              null              null              null              null
field_185_lum                     null     field_185_com     field_185_mgt        rc_strow_p     up_down_slope              null              null    convtill_nores              null              null              null              null              null
field_186_lum                     null     field_186_com     field_186_mgt        rc_strow_p     up_down_slope              null              null    convtill_nores              null              null              null              null              null
field_187_lum                     null     field_187_com     field_187_mgt        rc_strow_p     up_down_slope              null              null    convtill_nores              null              null              null              null              null
field_188_lum                     null     field_188_com     field_188_mgt        rc_strow_p     up_down_slope              null              null    convtill_nores              null              null              null              null              null
field_189_lum                     null     field_189_com     field_189_mgt        rc_strow_p     up_down_slope              null              null    convtill_nores              null              null              null              null              null
field_18_lum                      null      field_18_com      field_18_mgt        rc_strow_p     up_down_slope              null              null    convtill_nores              null              null              null              null              null
field_190_lum                     null     field_190_com     field_190_mgt        rc_strow_p     up_down_slope              null              null    convtill_nores              null              null              null              null              null
field_191_lum                     null     field_191_com     field_191_mgt        rc_strow_p     up_down_slope              null              null    convtill_nores              null              null              null              null              null
field_192_lum                     null     field_192_com     field_192_mgt        rc_strow_p     up_down_slope              null              null    convtill_nores              null              null              null              null              null
field_193_lum                     null     field_193_com     field_193_mgt        rc_strow_p     up_down_slope              null              null    convtill_nores              null              null              null              null              null
field_194_lum                     null     field_194_com     field_194_mgt        rc_strow_p     up_down_slope              null              null    convtill_nores              null              null              null              null              null
field_195_lum                     null     field_195_com     field_195_mgt        rc_strow_p     up_down_slope              null              null    convtill_nores              null              null              null              null              null
field_196_lum                     null     field_196_com     field_196_mgt        rc_strow_p     up_down_slope              null              null    convtill_nores              null              null              null              null              null
field_197_lum                     null     field_197_com     field_197_mgt        rc_strow_p     up_down_slope              null              null    convtill_nores              null              null              null              null              null
field_198_lum                     null     field_198_com     field_198_mgt        rc_strow_p     up_down_slope              null              null    convtill_nores              null              null              null              null              null
field_199_lum                     null     field_199_com     field_199_mgt     rc_strowres_g       cross_slope              null              null      chisplow_res              null              null              null              null              null
field_19_lum                      null      field_19_com      field_19_mgt        rc_strow_p     up_down_slope              null              null    convtill_nores              null              null              null              null              null
field_1_lum                       null       field_1_com       field_1_mgt        rc_strow_p     up_down_slope              null              null    convtill_nores              null              null              null              null              null
field_200_lum                     null     field_200_com     field_200_mgt        rc_strow_p     up_down_slope              null              null    convtill_nores              null              null              null              null              null
field_201_lum                     null     field_201_com     field_201_mgt        rc_strow_p     up_down_slope              null              null    convtill_nores              null              null              null              null              null
field_202_lum                     null     field_202_com     field_202_mgt        rc_strow_p     up_down_slope              null              null    convtill_nores              null              null              null              null              null
field_203_lum                     null     field_203_com     field_203_mgt        rc_strow_p     up_down_slope              null              null    convtill_nores              null              null              null              null              null