ls_unit.def: written by SWAT+ editor v2.2.0 on 2024-06-05 07:19 for SWAT+ rev.60.5.4
5196
      id              name          area  elem_tot  elements  
       1           rtu0001       0.08528         1         1  
       2           rtu0002       0.65436         1         2  
       3           rtu0003       8.93989         1         3  
       4           rtu0004       0.90638         1         4  
       5           rtu0005       5.33501         1         5  
       6           rtu0006      22.33181         1         6  
       7           rtu0007       5.86630         1         7  
       8           rtu0008       0.08334         1         8  
       9           rtu0009       1.65808         1         9  
      10           rtu0010       4.45443         1        10  
      11           rtu0011       1.04651         1        11  
      12           rtu0012       1.63563         1        12  
      13           rtu0013       2.21776         1        13  
      14           rtu0014       0.54192         1        14  
      15           rtu0015       1.03346         1        15  
      16           rtu0016       0.26772         1        16  
      17           rtu0017      14.71348         1        17  
      18           rtu0018      44.70786         1        18  
      19           rtu0019       0.86321         1        19  
      20           rtu0020       4.22925         1        20  
      21           rtu0021       0.91692         1        21  
      22           rtu0022       1.87838         1        22  
      23           rtu0023       0.61992         1        23  
      24           rtu0024       1.31912         1        24  
      25           rtu0025       6.74771         1        25  
      26           rtu0026       0.76341         1        26  
      27           rtu0027      17.88034         1        27  
      28           rtu0028       3.08485         1        28  
      29           rtu0029       0.11784         1        29  
      30           rtu0030       0.32274         1        30  
      31           rtu0031       0.48361         1        31  
      32           rtu0032       0.95140         1        32  
      33           rtu0033      16.75161         1        33  
      34           rtu0034       1.70841         1        34  
      35           rtu0035      15.99959         1        35  
      36           rtu0036       0.96628         1        36  
      37           rtu0037       8.36008         1        37  
      38           rtu0038       0.97448         1        38  
      39           rtu0039       2.92667         1        39  
      40           rtu0040       0.12487         1        40  
      41           rtu0041      14.51141         1        41  
      42           rtu0042       0.51732         1        42  
      43           rtu0043       0.45334         1        43  
      44           rtu0044       0.86720         1        44  
      45           rtu0045       2.19735         1        45  
      46           rtu0046       1.69616         1        46  
      47           rtu0047       0.71775         1        47  
      48           rtu0048       0.22143         1        48  
      49           rtu0049       1.41704         1        49  
      50           rtu0050       0.08057         1        50  
      51           rtu0051       1.95646         1        51  
      52           rtu0052      61.01106         1        52  
      53           rtu0053       0.18266         1        53  
      54           rtu0054       1.72252         1        54  
      55           rtu0055       0.02905         1        55  
      56           rtu0056       0.64518         1        56  
      57           rtu0057       1.79691         1        57  
      58           rtu0058       6.27819         1        58  
      59           rtu0059       0.14512         1        59  
      60           rtu0060       0.79365         1        60  
      61           rtu0061       4.94437         1        61  
      62           rtu0062      11.67964         1        62  
      63           rtu0063       0.35719         1        63  
      64           rtu0064       1.73466         1        64  
      65           rtu0065       0.92932         1        65  
      66           rtu0066       2.12601         1        66  
      67           rtu0067       4.61227         1        67  
      68           rtu0068       2.59197         1        68  
      69           rtu0069      13.98547         1        69  
      70           rtu0070       4.05095         1        70  
      71           rtu0071       1.60847         1        71  
      72           rtu0072       6.88081         1        72  
      73           rtu0073       0.77584         1        73  
      74           rtu0074       0.69427         1        74  
      75           rtu0075       0.06703         1        75  
      76           rtu0076       0.58921         1        76  
      77           rtu0077       0.29347         1        77  
      78           rtu0078       0.35316         1        78  
      79           rtu0079       4.27548         1        79  
      80           rtu0080       3.12856         1        80  
      81           rtu0081       0.03356         1        81  
      82           rtu0082       4.15132         1        82  
      83           rtu0083       6.44734         1        83  
      84           rtu0084       0.48930         1        84  
      85           rtu0085      13.60949         1        85  
      86           rtu0086       0.78261         1        86  
      87           rtu0087       3.30152         1        87  
      88           rtu0088       1.23917         1        88  
      89           rtu0089       0.93892         1        89  
      90           rtu0090       4.96839         1        90  
      91           rtu0091       0.96742         1        91  
      92           rtu0092       4.70537         1        92  
      93           rtu0093       5.10314         1        93  
      94           rtu0094       0.93938         1        94  
      95           rtu0095       1.24754         1        95  
      96           rtu0096       0.21033         1        96  
      97           rtu0097       3.15020         1        97  
      98           rtu0098      16.89756         1        98  
      99           rtu0099       0.26265         1        99  
     100           rtu0100       0.73273         1       100  
     101           rtu0101       0.10383         1       101  
     102           rtu0102       0.11780         1       102  
     103           rtu0103       0.80125         1       103  
     104           rtu0104       0.42108         1       104  
     105           rtu0105       6.69333         1       105  
     106           rtu0106      23.01103         1       106  
     107           rtu0107       0.31425         1       107  
     108           rtu0108       1.17686         1       108  
     109           rtu0109       0.13295         1       109  
     110           rtu0110       2.14963         1       110  
     111           rtu0111       0.47564         1       111  
     112           rtu0112       0.02371         1       112  
     113           rtu0113       0.08333         1       113  
     114           rtu0114       0.07955         1       114  
     115           rtu0115       0.83406         1       115  
     116           rtu0116       1.96024         1       116  
     117           rtu0117       2.05255         1       117  
     118           rtu0118       0.02076         1       118  
     119           rtu0119       0.15559         1       119  
     120           rtu0120       0.13903         1       120  
     121           rtu0121       0.14207         1       121  
     122           rtu0122       0.23733         1       122  
     123           rtu0123       0.83338         1       123  
     124           rtu0124       2.14146         1       124  
     125           rtu0125       1.10054         1       125  
     126           rtu0126       1.58120         1       126  
     127           rtu0127       2.12564         1       127  
     128           rtu0128       1.12471         1       128  
     129           rtu0129       1.58384         1       129  
     130           rtu0130       0.53628         1       130  
     131           rtu0131       0.80545         1       131  
     132           rtu0132       1.51821         1       132  
     133           rtu0133       1.23900         1       133  
     134           rtu0134       0.20098         1       134  
     135           rtu0135       0.66367         1       135  
     136           rtu0136       1.04206         1       136  
     137           rtu0137       0.21094         1       137  
     138           rtu0138       1.06843         1       138  
     139           rtu0139       1.30868         1       139  
     140           rtu0140       2.15951         1       140  
     141           rtu0141       0.20423         1       141  
     142           rtu0142       0.99963         1       142  
     143           rtu0143       4.52011         1       143  
     144           rtu0144       1.32758         1       144  
     145           rtu0145       0.23833         1       145  
     146           rtu0146       0.46433         1       146  
     147           rtu0147     154.74801         1       147  
     148           rtu0148       4.29715         1       148  
     149           rtu0149       1.16926         1       149  
     150           rtu0150       0.09978         1       150  
     151           rtu0151       4.11517         1       151  
     152           rtu0152       1.07483         1       152  
     153           rtu0153       1.67941         1       153  
     154           rtu0154       0.17108         1       154  
     155           rtu0155       0.35732         1       155  
     156           rtu0156      26.26394         1       156  
     157           rtu0157      41.43714         1       157  
     158           rtu0158       0.25423         1       158  
     159           rtu0159       1.01213         1       159  
     160           rtu0160       0.93713         1       160  
     161           rtu0161       0.94546         1       161  
     162           rtu0162      46.54674         1       162  
     163           rtu0163       1.31658         1       163  
     164           rtu0164       0.28377         1       164  
     165           rtu0165       0.76849         1       165  
     166           rtu0166       0.18114         1       166  
     167           rtu0167       4.98973         1       167  
     168           rtu0168       3.52835         1       168  
     169           rtu0169       0.60027         1       169  
     170           rtu0170       0.13692         1       170  
     171           rtu0171       0.65721         1       171  
     172           rtu0172       6.42817         1       172  
     173           rtu0173       5.29306         1       173  
     174           rtu0174       1.17250         1       174  
     175           rtu0175       1.15570         1       175  
     176           rtu0176      14.50957         1       176  
     177           rtu0177       0.69777         1       177  
     178           rtu0178       6.50337         1       178  
     179           rtu0179      16.05347         1       179  
     180           rtu0180       0.60339         1       180  
     181           rtu0181       9.03560         1       181  
     182           rtu0182       2.10426         1       182  
     183           rtu0183       7.46596         1       183  
     184           rtu0184       0.30838         1       184  
     185           rtu0185       0.05462         1       185  
     186           rtu0186       2.09742         1       186  
     187           rtu0187       1.01042         1       187  
     188           rtu0188       0.58533         1       188  
     189           rtu0189      11.27015         1       189  
     190           rtu0190       6.66790         1       190  
     191           rtu0191       0.87207         1       191  
     192           rtu0192       0.17361         1       192  
     193           rtu0193       0.17866         1       193  
     194           rtu0194       6.11659         1       194  
     195           rtu0195      66.76006         1       195  
     196           rtu0196       2.85060         1       196  
     197           rtu0197       0.02291         1       197  
     198           rtu0198       8.97876         1       198  
     199           rtu0199       2.00223         1       199  
     200           rtu0200       3.11999         1       200  
     201           rtu0201       4.36102         1       201  
     202           rtu0202       0.82718         1       202  
     203           rtu0203       0.91465         1       203  
     204           rtu0204       0.31239         1       204  
     205           rtu0205       9.57562         1       205  
     206           rtu0206       0.38385         1       206  
     207           rtu0207       0.18171         1       207  
     208           rtu0208       0.02356         1       208  
     209           rtu0209       0.38665         1       209  
     210           rtu0210       0.46245         1       210  
     211           rtu0211       0.21054         1       211  
     212           rtu0212       2.12576         1       212  
     213           rtu0213       1.39749         1       213  
     214           rtu0214       0.13216         1       214  
     215           rtu0215       1.26964         1       215  
     216           rtu0216       0.37216         1       216  
     217           rtu0217       0.85647         1       217  
     218           rtu0218       1.71374         1       218  
     219           rtu0219       0.87181         1       219  
     220           rtu0220       0.52998         1       220  
     221           rtu0221       0.38497         1       221  
     222           rtu0222       0.09170         1       222  
     223           rtu0223       3.95496         1       223  
     224           rtu0224       0.64912         1       224  
     225           rtu0225       0.90233         1       225  
     226           rtu0226       0.12769         1       226  
     227           rtu0227       1.81132         1       227  
     228           rtu0228       9.65109         1       228  
     229           rtu0229       0.27521         1       229  
     230           rtu0230       1.85363         1       230  
     231           rtu0231       2.44580         1       231  
     232           rtu0232      10.44042         1       232  
     233           rtu0233       2.22221         1       233  
     234           rtu0234       4.16449         1       234  
     235           rtu0235       0.43540         1       235  
     236           rtu0236       4.00732         1       236  
     237           rtu0237      14.64075         1       237  
     238           rtu0238      15.36500         1       238  
     239           rtu0239       6.73144         1       239  
     240           rtu0240       0.47485         1       240  
     241           rtu0241       5.87697         1       241  
     242           rtu0242       1.98206         1       242  
     243           rtu0243       3.66928         1       243  
     244           rtu0244       0.03176         1       244  
     245           rtu0245       0.56876         1       245  
     246           rtu0246       0.53022         1       246  
     247           rtu0247       0.27373         1       247  
     248           rtu0248       5.78748         1       248  
     249           rtu0249       2.06781         1       249  
     250           rtu0250       5.88072         1       250  
     251           rtu0251       5.55255         1       251  
     252           rtu0252      27.79194         1       252  
     253           rtu0253       1.27938         1       253  
     254           rtu0254       0.56725         1       254  
     255           rtu0255       0.21383         1       255  
     256           rtu0256       5.34680         1       256  
     257           rtu0257       0.88650         1       257  
     258           rtu0258       1.05887         1       258  
     259           rtu0259       2.22087         1       259  
     260           rtu0260       4.18560         1       260  
     261           rtu0261       1.81784         1       261  
     262           rtu0262       2.12757         1       262  
     263           rtu0263       2.53513         1       263  
     264           rtu0264       0.83768         1       264  
     265           rtu0265       2.26777         1       265  
     266           rtu0266       0.56752         1       266  
     267           rtu0267       2.07113         1       267  
     268           rtu0268       2.09124         1       268  
     269           rtu0269       2.11401         1       269  
     270           rtu0270      96.45747         1       270  
     271           rtu0271       3.42123         1       271  
     272           rtu0272       6.20293         1       272  
     273           rtu0273       0.38643         1       273  
     274           rtu0274       1.92777         1       274  
     275           rtu0275       1.75921         1       275  
     276           rtu0276       0.68981         1       276  
     277           rtu0277       0.69144         1       277  
     278           rtu0278       0.91719         1       278  
     279           rtu0279       1.19113         1       279  
     280           rtu0280       1.94063         1       280  
     281           rtu0281       0.05540         1       281  
     282           rtu0282       2.17879         1       282  
     283           rtu0283       0.07650         1       283  
     284           rtu0284       1.15032         1       284  
     285           rtu0285       1.55235         1       285  
     286           rtu0286       0.53219         1       286  
     287           rtu0287       0.67319         1       287  
     288           rtu0288       1.11733         1       288  
     289           rtu0289       0.01424         1       289  
     290           rtu0290       2.91380         1       290  
     291           rtu0291       0.06202         1       291  
     292           rtu0292       0.05620         1       292  
     293           rtu0293       0.14138         1       293  
     294           rtu0294       0.05203         1       294  
     295           rtu0295       0.53423         1       295  
     296           rtu0296       0.21234         1       296  
     297           rtu0297       1.57224         1       297  
     298           rtu0298       0.76045         1       298  
     299           rtu0299       0.12880         1       299  
     300           rtu0300       4.56586         1       300  
     301           rtu0301       0.92500         1       301  
     302           rtu0302       2.86386         1       302  
     303           rtu0303       0.07086         1       303  
     304           rtu0304       0.35207         1       304  
     305           rtu0305       0.72118         1       305  
     306           rtu0306       1.55396         1       306  
     307           rtu0307       6.39385         1       307  
     308           rtu0308       3.43817         1       308  
     309           rtu0309       3.64007         1       309  
     310           rtu0310       1.79739         1       310  
     311           rtu0311       1.35548         1       311  
     312           rtu0312       0.09250         1       312  
     313           rtu0313       3.19880         1       313  
     314           rtu0314       4.39858         1       314  
     315           rtu0315      18.59900         1       315  
     316           rtu0316       5.49763         1       316  
     317           rtu0317       0.38561         1       317  
     318           rtu0318       0.05462         1       318  
     319           rtu0319       0.73212         1       319  
     320           rtu0320       2.28866         1       320  
     321           rtu0321       4.17343         1       321  
     322           rtu0322       0.16049         1       322  
     323           rtu0323      18.50258         1       323  
     324           rtu0324       0.53372         1       324  
     325           rtu0325       0.52114         1       325  
     326           rtu0326       5.50873         1       326  
     327           rtu0327       2.91938         1       327  
     328           rtu0328       3.49111         1       328  
     329           rtu0329      19.71980         1       329  
     330           rtu0330       1.47748         1       330  
     331           rtu0331       0.07274         1       331  
     332           rtu0332       0.21590         1       332  
     333           rtu0333       0.37583         1       333  
     334           rtu0334       0.26270         1       334  
     335           rtu0335       0.49396         1       335  
     336           rtu0336       0.98200         1       336  
     337           rtu0337       0.97746         1       337  
     338           rtu0338       0.76614         1       338  
     339           rtu0339       0.39684         1       339  
     340           rtu0340       0.57241         1       340  
     341           rtu0341       0.70869         1       341  
     342           rtu0342       3.42509         1       342  
     343           rtu0343       0.04096         1       343  
     344           rtu0344       0.43568         1       344  
     345           rtu0345       0.68946         1       345  
     346           rtu0346       4.50408         1       346  
     347           rtu0347       0.88093         1       347  
     348           rtu0348       0.12863         1       348  
     349           rtu0349       0.30760         1       349  
     350           rtu0350       0.95093         1       350  
     351           rtu0351       0.08706         1       351  
     352           rtu0352       0.01151         1       352  
     353           rtu0353       0.04910         1       353  
     354           rtu0354       4.07572         1       354  
     355           rtu0355       1.77586         1       355  
     356           rtu0356       0.25481         1       356  
     357           rtu0357       2.83434         1       357  
     358           rtu0358       0.16634         1       358  
     359           rtu0359       0.28789         1       359  
     360           rtu0360       3.36499         1       360  
     361           rtu0361       1.58743         1       361  
     362           rtu0362       0.30076         1       362  
     363           rtu0363       0.28407         1       363  
     364           rtu0364       0.04755         1       364  
     365           rtu0365       4.57125         1       365  
     366           rtu0366       0.20568         1       366  
     367           rtu0367       0.20392         1       367  
     368           rtu0368       0.25119         1       368  
     369           rtu0369       0.71124         1       369  
     370           rtu0370       1.18400         1       370  
     371           rtu0371      19.95808         1       371  
     372           rtu0372       0.06617         1       372  
     373           rtu0373       2.78531         1       373  
     374           rtu0374       1.93189         1       374  
     375           rtu0375       3.76258         1       375  
     376           rtu0376       2.40878         1       376  
     377           rtu0377       0.13956         1       377  
     378           rtu0378       0.35166         1       378  
     379           rtu0379       0.66092         1       379  
     380           rtu0380       0.08228         1       380  
     381           rtu0381      36.08266         1       381  
     382           rtu0382      19.81284         1       382  
     383           rtu0383      13.67328         1       383  
     384           rtu0384       2.19542         1       384  
     385           rtu0385       1.86559         1       385  
     386           rtu0386       0.27621         1       386  
     387           rtu0387       1.12370         1       387  
     388           rtu0388       0.44869         1       388  
     389           rtu0389       0.21769         1       389  
     390           rtu0390       0.01760         1       390  
     391           rtu0391       0.28102         1       391  
     392           rtu0392       0.06977         1       392  
     393           rtu0393       0.80896         1       393  
     394           rtu0394       1.06493         1       394  
     395           rtu0395       0.08191         1       395  
     396           rtu0396       1.00539         1       396  
     397           rtu0397       1.16600         1       397  
     398           rtu0398       0.15345         1       398  
     399           rtu0399       1.67904         1       399  
     400           rtu0400       1.94391         1       400  
     401           rtu0401       1.46021         1       401  
     402           rtu0402      41.52785         1       402  
     403           rtu0403       5.49268         1       403  
     404           rtu0404       2.65137         1       404  
     405           rtu0405       3.24385         1       405  
     406           rtu0406       0.10476         1       406  
     407           rtu0407       0.15628         1       407  
     408           rtu0408       0.82474         1       408  
     409           rtu0409       0.55167         1       409  
     410           rtu0410       0.44162         1       410  
     411           rtu0411       0.46933         1       411  
     412           rtu0412       0.71951         1       412  
     413           rtu0413       1.64469         1       413  
     414           rtu0414       9.28609         1       414  
     415           rtu0415       0.55747         1       415  
     416           rtu0416       2.37090         1       416  
     417           rtu0417       4.01429         1       417  
     418           rtu0418       1.10782         1       418  
     419           rtu0419       0.02350         1       419  
     420           rtu0420       0.42172         1       420  
     421           rtu0421       0.34660         1       421  
     422           rtu0422       4.90129         1       422  
     423           rtu0423      21.10464         1       423  
     424           rtu0424       0.11014         1       424  
     425           rtu0425       0.10914         1       425  
     426           rtu0426       2.29798         1       426  
     427           rtu0427       0.88341         1       427  
     428           rtu0428       3.37459         1       428  
     429           rtu0429       2.36084         1       429  
     430           rtu0430       4.17268         1       430  
     431           rtu0431       0.28412         1       431  
     432           rtu0432       0.11132         1       432  
     433           rtu0433       1.21171         1       433  
     434           rtu0434       2.46687         1       434  
     435           rtu0435       0.63179         1       435  
     436           rtu0436       7.43715         1       436  
     437           rtu0437       0.49615         1       437  
     438           rtu0438       0.83674         1       438  
     439           rtu0439       1.69651         1       439  
     440           rtu0440       0.07743         1       440  
     441           rtu0441       0.75569         1       441  
     442           rtu0442       0.01483         1       442  
     443           rtu0443       0.18500         1       443  
     444           rtu0444       0.05353         1       444  
     445           rtu0445       0.18294         1       445  
     446           rtu0446       0.27057         1       446  
     447           rtu0447       0.14527         1       447  
     448           rtu0448       1.08502         1       448  
     449           rtu0449       0.61395         1       449  
     450           rtu0450       0.80235         1       450  
     451           rtu0451       0.56099         1       451  
     452           rtu0452       3.27607         1       452  
     453           rtu0453       0.19920         1       453  
     454           rtu0454       0.05253         1       454  
     455           rtu0455       0.00948         1       455  
     456           rtu0456       0.59579         1       456  
     457           rtu0457       3.47727         1       457  
     458           rtu0458       2.47864         1       458  
     459           rtu0459       0.19350         1       459  
     460           rtu0460       1.45406         1       460  
     461           rtu0461       0.30475         1       461  
     462           rtu0462       0.05197         1       462  
     463           rtu0463       0.00897         1       463  
     464           rtu0464       5.95982         1       464  
     465           rtu0465       1.02668         1       465  
     466           rtu0466       0.13176         1       466  
     467           rtu0467       0.18946         1       467  
     468           rtu0468       0.14843         1       468  
     469           rtu0469       1.35555         1       469  
     470           rtu0470       1.15954         1       470  
     471           rtu0471       4.95946         1       471  
     472           rtu0472      26.00651         1       472  
     473           rtu0473       0.92434         1       473  