ls_unit.ele: written by SWAT+ editor v2.2.0 on 2024-06-05 07:19 for SWAT+ rev.60.5.4
      id  name                   obj_typ  obj_typ_no      bsn_frac      sub_frac      reg_frac  
       1  hru0001                    hru           1     6.8529E-6       1.00000       0.00000  
       2  hru0002                    hru           2     5.2584E-5       1.00000       0.00000  
       3  hru0003                    hru           3     7.1841E-4       1.00000       0.00000  
       4  hru0004                    hru           4     7.2836E-5       1.00000       0.00000  
       5  hru0005                    hru           5     4.2872E-4       1.00000       0.00000  
       6  hru0006                    hru           6     1.7946E-3       1.00000       0.00000  
       7  hru0007                    hru           7     4.7141E-4       1.00000       0.00000  
       8  hru0008                    hru           8     6.6972E-6       1.00000       0.00000  
       9  hru0009                    hru           9     1.3324E-4       1.00000       0.00000  
      10  hru0010                    hru          10     3.5796E-4       1.00000       0.00000  
      11  hru0011                    hru          11     8.4097E-5       1.00000       0.00000  
      12  hru0012                    hru          12     1.3144E-4       1.00000       0.00000  
      13  hru0013                    hru          13     1.7822E-4       1.00000       0.00000  
      14  hru0014                    hru          14     4.3549E-5       1.00000       0.00000  
      15  hru0015                    hru          15     8.3049E-5       1.00000       0.00000  
      16  hru0016                    hru          16     2.1514E-5       1.00000       0.00000  
      17  hru0017                    hru          17     1.1824E-3       1.00000       0.00000  
      18  hru0018                    hru          18     3.5927E-3       1.00000       0.00000  
      19  hru0019                    hru          19     6.9368E-5       1.00000       0.00000  
      20  hru0020                    hru          20     3.3986E-4       1.00000       0.00000  
      21  hru0021                    hru          21     7.3683E-5       1.00000       0.00000  
      22  hru0022                    hru          22     1.5095E-4       1.00000       0.00000  
      23  hru0023                    hru          23     4.9817E-5       1.00000       0.00000  
      24  hru0024                    hru          24     1.0600E-4       1.00000       0.00000  
      25  hru0025                    hru          25     5.4224E-4       1.00000       0.00000  
      26  hru0026                    hru          26     6.1348E-5       1.00000       0.00000  
      27  hru0027                    hru          27     1.4369E-3       1.00000       0.00000  
      28  hru0028                    hru          28     2.4790E-4       1.00000       0.00000  
      29  hru0029                    hru          29     9.4697E-6       1.00000       0.00000  
      30  hru0030                    hru          30     2.5935E-5       1.00000       0.00000  
      31  hru0031                    hru          31     3.8863E-5       1.00000       0.00000  
      32  hru0032                    hru          32     7.6455E-5       1.00000       0.00000  
      33  hru0033                    hru          33     1.3462E-3       1.00000       0.00000  
      34  hru0034                    hru          34     1.3729E-4       1.00000       0.00000  
      35  hru0035                    hru          35     1.2857E-3       1.00000       0.00000  
      36  hru0036                    hru          36     7.7650E-5       1.00000       0.00000  
      37  hru0037                    hru          37     6.7181E-4       1.00000       0.00000  
      38  hru0038                    hru          38     7.8309E-5       1.00000       0.00000  
      39  hru0039                    hru          39     2.3519E-4       1.00000       0.00000  
      40  hru0040                    hru          40     1.0035E-5       1.00000       0.00000  
      41  hru0041                    hru          41     1.1661E-3       1.00000       0.00000  
      42  hru0042                    hru          42     4.1572E-5       1.00000       0.00000  
      43  hru0043                    hru          43     3.6430E-5       1.00000       0.00000  
      44  hru0044                    hru          44     6.9688E-5       1.00000       0.00000  
      45  hru0045                    hru          45     1.7658E-4       1.00000       0.00000  
      46  hru0046                    hru          46     1.3630E-4       1.00000       0.00000  
      47  hru0047                    hru          47     5.7678E-5       1.00000       0.00000  
      48  hru0048                    hru          48     1.7794E-5       1.00000       0.00000  
      49  hru0049                    hru          49     1.1387E-4       1.00000       0.00000  
      50  hru0050                    hru          50     6.4743E-6       1.00000       0.00000  
      51  hru0051                    hru          51     1.5722E-4       1.00000       0.00000  
      52  hru0052                    hru          52     4.9028E-3       1.00000       0.00000  
      53  hru0053                    hru          53     1.4678E-5       1.00000       0.00000  
      54  hru0054                    hru          54     1.3842E-4       1.00000       0.00000  
      55  hru0055                    hru          55     2.3345E-6       1.00000       0.00000  
      56  hru0056                    hru          56     5.1846E-5       1.00000       0.00000  
      57  hru0057                    hru          57     1.4440E-4       1.00000       0.00000  
      58  hru0058                    hru          58     5.0451E-4       1.00000       0.00000  
      59  hru0059                    hru          59     1.1662E-5       1.00000       0.00000  
      60  hru0060                    hru          60     6.3778E-5       1.00000       0.00000  
      61  hru0061                    hru          61     3.9733E-4       1.00000       0.00000  
      62  hru0062                    hru          62     9.3857E-4       1.00000       0.00000  
      63  hru0063                    hru          63     2.8704E-5       1.00000       0.00000  
      64  hru0064                    hru          64     1.3940E-4       1.00000       0.00000  
      65  hru0065                    hru          65     7.4680E-5       1.00000       0.00000  
      66  hru0066                    hru          66     1.7085E-4       1.00000       0.00000  
      67  hru0067                    hru          67     3.7064E-4       1.00000       0.00000  
      68  hru0068                    hru          68     2.0829E-4       1.00000       0.00000  
      69  hru0069                    hru          69     1.1239E-3       1.00000       0.00000  
      70  hru0070                    hru          70     3.2553E-4       1.00000       0.00000  
      71  hru0071                    hru          71     1.2926E-4       1.00000       0.00000  
      72  hru0072                    hru          72     5.5294E-4       1.00000       0.00000  
      73  hru0073                    hru          73     6.2347E-5       1.00000       0.00000  
      74  hru0074                    hru          74     5.5792E-5       1.00000       0.00000  
      75  hru0075                    hru          75     5.3864E-6       1.00000       0.00000  
      76  hru0076                    hru          76     4.7349E-5       1.00000       0.00000  
      77  hru0077                    hru          77     2.3583E-5       1.00000       0.00000  
      78  hru0078                    hru          78     2.8380E-5       1.00000       0.00000  
      79  hru0079                    hru          79     3.4358E-4       1.00000       0.00000  
      80  hru0080                    hru          80     2.5141E-4       1.00000       0.00000  
      81  hru0081                    hru          81     2.6965E-6       1.00000       0.00000  
      82  hru0082                    hru          82     3.3360E-4       1.00000       0.00000  
      83  hru0083                    hru          83     5.1811E-4       1.00000       0.00000  
      84  hru0084                    hru          84     3.9320E-5       1.00000       0.00000  
      85  hru0085                    hru          85     1.0937E-3       1.00000       0.00000  
      86  hru0086                    hru          86     6.2890E-5       1.00000       0.00000  
      87  hru0087                    hru          87     2.6531E-4       1.00000       0.00000  
      88  hru0088                    hru          88     9.9580E-5       1.00000       0.00000  
      89  hru0089                    hru          89     7.5452E-5       1.00000       0.00000  
      90  hru0090                    hru          90     3.9926E-4       1.00000       0.00000  
      91  hru0091                    hru          91     7.7742E-5       1.00000       0.00000  
      92  hru0092                    hru          92     3.7812E-4       1.00000       0.00000  
      93  hru0093                    hru          93     4.1009E-4       1.00000       0.00000  
      94  hru0094                    hru          94     7.5488E-5       1.00000       0.00000  
      95  hru0095                    hru          95     1.0025E-4       1.00000       0.00000  
      96  hru0096                    hru          96     1.6902E-5       1.00000       0.00000  
      97  hru0097                    hru          97     2.5315E-4       1.00000       0.00000  
      98  hru0098                    hru          98     1.3579E-3       1.00000       0.00000  
      99  hru0099                    hru          99     2.1106E-5       1.00000       0.00000  
     100  hru0100                    hru         100     5.8882E-5       1.00000       0.00000  
     101  hru0101                    hru         101     8.3434E-6       1.00000       0.00000  
     102  hru0102                    hru         102     9.4660E-6       1.00000       0.00000  
     103  hru0103                    hru         103     6.4389E-5       1.00000       0.00000  
     104  hru0104                    hru         104     3.3838E-5       1.00000       0.00000  
     105  hru0105                    hru         105     5.3787E-4       1.00000       0.00000  
     106  hru0106                    hru         106     1.8492E-3       1.00000       0.00000  
     107  hru0107                    hru         107     2.5253E-5       1.00000       0.00000  
     108  hru0108                    hru         108     9.4572E-5       1.00000       0.00000  
     109  hru0109                    hru         109     1.0684E-5       1.00000       0.00000  
     110  hru0110                    hru         110     1.7274E-4       1.00000       0.00000  
     111  hru0111                    hru         111     3.8222E-5       1.00000       0.00000  
     112  hru0112                    hru         112     1.9051E-6       1.00000       0.00000  
     113  hru0113                    hru         113     6.6960E-6       1.00000       0.00000  
     114  hru0114                    hru         114     6.3929E-6       1.00000       0.00000  
     115  hru0115                    hru         115     6.7025E-5       1.00000       0.00000  
     116  hru0116                    hru         116     1.5752E-4       1.00000       0.00000  
     117  hru0117                    hru         117     1.6494E-4       1.00000       0.00000  
     118  hru0118                    hru         118     1.6684E-6       1.00000       0.00000  
     119  hru0119                    hru         119     1.2503E-5       1.00000       0.00000  
     120  hru0120                    hru         120     1.1172E-5       1.00000       0.00000  
     121  hru0121                    hru         121     1.1417E-5       1.00000       0.00000  
     122  hru0122                    hru         122     1.9072E-5       1.00000       0.00000  
     123  hru0123                    hru         123     6.6970E-5       1.00000       0.00000  
     124  hru0124                    hru         124     1.7209E-4       1.00000       0.00000  
     125  hru0125                    hru         125     8.8439E-5       1.00000       0.00000  
     126  hru0126                    hru         126     1.2707E-4       1.00000       0.00000  
     127  hru0127                    hru         127     1.7082E-4       1.00000       0.00000  
     128  hru0128                    hru         128     9.0381E-5       1.00000       0.00000  
     129  hru0129                    hru         129     1.2728E-4       1.00000       0.00000  
     130  hru0130                    hru         130     4.3095E-5       1.00000       0.00000  
     131  hru0131                    hru         131     6.4726E-5       1.00000       0.00000  
     132  hru0132                    hru         132     1.2200E-4       1.00000       0.00000  
     133  hru0133                    hru         133     9.9566E-5       1.00000       0.00000  
     134  hru0134                    hru         134     1.6151E-5       1.00000       0.00000  
     135  hru0135                    hru         135     5.3332E-5       1.00000       0.00000  
     136  hru0136                    hru         136     8.3740E-5       1.00000       0.00000  
     137  hru0137                    hru         137     1.6951E-5       1.00000       0.00000  
     138  hru0138                    hru         138     8.5859E-5       1.00000       0.00000  
     139  hru0139                    hru         139     1.0517E-4       1.00000       0.00000  
     140  hru0140                    hru         140     1.7354E-4       1.00000       0.00000  
     141  hru0141                    hru         141     1.6412E-5       1.00000       0.00000  
     142  hru0142                    hru         142     8.0330E-5       1.00000       0.00000  
     143  hru0143                    hru         143     3.6324E-4       1.00000       0.00000  
     144  hru0144                    hru         144     1.0668E-4       1.00000       0.00000  
     145  hru0145                    hru         145     1.9152E-5       1.00000       0.00000  
     146  hru0146                    hru         146     3.7314E-5       1.00000       0.00000  
     147  hru0147                    hru         147     1.2436E-2       1.00000       0.00000  
     148  hru0148                    hru         148     3.4532E-4       1.00000       0.00000  
     149  hru0149                    hru         149     9.3962E-5       1.00000       0.00000  
     150  hru0150                    hru         150     8.0187E-6       1.00000       0.00000  
     151  hru0151                    hru         151     3.3069E-4       1.00000       0.00000  
     152  hru0152                    hru         152     8.6373E-5       1.00000       0.00000  
     153  hru0153                    hru         153     1.3496E-4       1.00000       0.00000  
     154  hru0154                    hru         154     1.3748E-5       1.00000       0.00000  
     155  hru0155                    hru         155     2.8715E-5       1.00000       0.00000  
     156  hru0156                    hru         156     2.1106E-3       1.00000       0.00000  
     157  hru0157                    hru         157     3.3299E-3       1.00000       0.00000  
     158  hru0158                    hru         158     2.0430E-5       1.00000       0.00000  
     159  hru0159                    hru         159     8.1334E-5       1.00000       0.00000  
     160  hru0160                    hru         160     7.5307E-5       1.00000       0.00000  
     161  hru0161                    hru         161     7.5977E-5       1.00000       0.00000  
     162  hru0162                    hru         162     3.7405E-3       1.00000       0.00000  
     163  hru0163                    hru         163     1.0580E-4       1.00000       0.00000  
     164  hru0164                    hru         164     2.2803E-5       1.00000       0.00000  
     165  hru0165                    hru         165     6.1756E-5       1.00000       0.00000  
     166  hru0166                    hru         166     1.4557E-5       1.00000       0.00000  
     167  hru0167                    hru         167     4.0097E-4       1.00000       0.00000  
     168  hru0168                    hru         168     2.8354E-4       1.00000       0.00000  
     169  hru0169                    hru         169     4.8238E-5       1.00000       0.00000  
     170  hru0170                    hru         170     1.1003E-5       1.00000       0.00000  
     171  hru0171                    hru         171     5.2813E-5       1.00000       0.00000  
     172  hru0172                    hru         172     5.1657E-4       1.00000       0.00000  
     173  hru0173                    hru         173     4.2535E-4       1.00000       0.00000  
     174  hru0174                    hru         174     9.4222E-5       1.00000       0.00000  
     175  hru0175                    hru         175     9.2872E-5       1.00000       0.00000  
     176  hru0176                    hru         176     1.1660E-3       1.00000       0.00000  
     177  hru0177                    hru         177     5.6073E-5       1.00000       0.00000  
     178  hru0178                    hru         178     5.2261E-4       1.00000       0.00000  
     179  hru0179                    hru         179     1.2901E-3       1.00000       0.00000  
     180  hru0180                    hru         180     4.8488E-5       1.00000       0.00000  
     181  hru0181                    hru         181     7.2610E-4       1.00000       0.00000  
     182  hru0182                    hru         182     1.6910E-4       1.00000       0.00000  
     183  hru0183                    hru         183     5.9996E-4       1.00000       0.00000  
     184  hru0184                    hru         184     2.4782E-5       1.00000       0.00000  
     185  hru0185                    hru         185     4.3894E-6       1.00000       0.00000  
     186  hru0186                    hru         186     1.6855E-4       1.00000       0.00000  
     187  hru0187                    hru         187     8.1197E-5       1.00000       0.00000  
     188  hru0188                    hru         188     4.7037E-5       1.00000       0.00000  
     189  hru0189                    hru         189     9.0567E-4       1.00000       0.00000  
     190  hru0190                    hru         190     5.3583E-4       1.00000       0.00000  
     191  hru0191                    hru         191     7.0080E-5       1.00000       0.00000  
     192  hru0192                    hru         192     1.3951E-5       1.00000       0.00000  
     193  hru0193                    hru         193     1.4357E-5       1.00000       0.00000  
     194  hru0194                    hru         194     4.9153E-4       1.00000       0.00000  
     195  hru0195                    hru         195     5.3648E-3       1.00000       0.00000  
     196  hru0196                    hru         196     2.2907E-4       1.00000       0.00000  
     197  hru0197                    hru         197     1.8409E-6       1.00000       0.00000  
     198  hru0198                    hru         198     7.2153E-4       1.00000       0.00000  
     199  hru0199                    hru         199     1.6090E-4       1.00000       0.00000  
     200  hru0200                    hru         200     2.5072E-4       1.00000       0.00000  
     201  hru0201                    hru         201     3.5045E-4       1.00000       0.00000  
     202  hru0202                    hru         202     6.6472E-5       1.00000       0.00000  
     203  hru0203                    hru         203     7.3501E-5       1.00000       0.00000  
     204  hru0204                    hru         204     2.5103E-5       1.00000       0.00000  
     205  hru0205                    hru         205     7.6949E-4       1.00000       0.00000  
     206  hru0206                    hru         206     3.0846E-5       1.00000       0.00000  
     207  hru0207                    hru         207     1.4602E-5       1.00000       0.00000  
     208  hru0208                    hru         208     1.8929E-6       1.00000       0.00000  
     209  hru0209                    hru         209     3.1071E-5       1.00000       0.00000  
     210  hru0210                    hru         210     3.7162E-5       1.00000       0.00000  
     211  hru0211                    hru         211     1.6919E-5       1.00000       0.00000  
     212  hru0212                    hru         212     1.7083E-4       1.00000       0.00000  
     213  hru0213                    hru         213     1.1230E-4       1.00000       0.00000  
     214  hru0214                    hru         214     1.0620E-5       1.00000       0.00000  
     215  hru0215                    hru         215     1.0203E-4       1.00000       0.00000  
     216  hru0216                    hru         216     2.9907E-5       1.00000       0.00000  
     217  hru0217                    hru         217     6.8825E-5       1.00000       0.00000  
     218  hru0218                    hru         218     1.3772E-4       1.00000       0.00000  
     219  hru0219                    hru         219     7.0058E-5       1.00000       0.00000  
     220  hru0220                    hru         220     4.2589E-5       1.00000       0.00000  
     221  hru0221                    hru         221     3.0936E-5       1.00000       0.00000  
     222  hru0222                    hru         222     7.3694E-6       1.00000       0.00000  
     223  hru0223                    hru         223     3.1782E-4       1.00000       0.00000  
     224  hru0224                    hru         224     5.2163E-5       1.00000       0.00000  
     225  hru0225                    hru         225     7.2511E-5       1.00000       0.00000  
     226  hru0226                    hru         226     1.0261E-5       1.00000       0.00000  
     227  hru0227                    hru         227     1.4556E-4       1.00000       0.00000  
     228  hru0228                    hru         228     7.7556E-4       1.00000       0.00000  
     229  hru0229                    hru         229     2.2116E-5       1.00000       0.00000  
     230  hru0230                    hru         230     1.4896E-4       1.00000       0.00000  
     231  hru0231                    hru         231     1.9654E-4       1.00000       0.00000  
     232  hru0232                    hru         232     8.3899E-4       1.00000       0.00000  
     233  hru0233                    hru         233     1.7858E-4       1.00000       0.00000  
     234  hru0234                    hru         234     3.3466E-4       1.00000       0.00000  
     235  hru0235                    hru         235     3.4989E-5       1.00000       0.00000  
     236  hru0236                    hru         236     3.2203E-4       1.00000       0.00000  
     237  hru0237                    hru         237     1.1765E-3       1.00000       0.00000  
     238  hru0238                    hru         238     1.2347E-3       1.00000       0.00000  
     239  hru0239                    hru         239     5.4094E-4       1.00000       0.00000  
     240  hru0240                    hru         240     3.8159E-5       1.00000       0.00000  
     241  hru0241                    hru         241     4.7227E-4       1.00000       0.00000  
     242  hru0242                    hru         242     1.5928E-4       1.00000       0.00000  
     243  hru0243                    hru         243     2.9486E-4       1.00000       0.00000  
     244  hru0244                    hru         244     2.5521E-6       1.00000       0.00000  
     245  hru0245                    hru         245     4.5705E-5       1.00000       0.00000  
     246  hru0246                    hru         246     4.2608E-5       1.00000       0.00000  
     247  hru0247                    hru         247     2.1997E-5       1.00000       0.00000  
     248  hru0248                    hru         248     4.6508E-4       1.00000       0.00000  
     249  hru0249                    hru         249     1.6617E-4       1.00000       0.00000  
     250  hru0250                    hru         250     4.7257E-4       1.00000       0.00000  
     251  hru0251                    hru         251     4.4620E-4       1.00000       0.00000  
     252  hru0252                    hru         252     2.2334E-3       1.00000       0.00000  
     253  hru0253                    hru         253     1.0281E-4       1.00000       0.00000  
     254  hru0254                    hru         254     4.5584E-5       1.00000       0.00000  
     255  hru0255                    hru         255     1.7183E-5       1.00000       0.00000  
     256  hru0256                    hru         256     4.2967E-4       1.00000       0.00000  
     257  hru0257                    hru         257     7.1239E-5       1.00000       0.00000  
     258  hru0258                    hru         258     8.5090E-5       1.00000       0.00000  
     259  hru0259                    hru         259     1.7847E-4       1.00000       0.00000  
     260  hru0260                    hru         260     3.3635E-4       1.00000       0.00000  
     261  hru0261                    hru         261     1.4608E-4       1.00000       0.00000  
     262  hru0262                    hru         262     1.7097E-4       1.00000       0.00000  
     263  hru0263                    hru         263     2.0372E-4       1.00000       0.00000  
     264  hru0264                    hru         264     6.7316E-5       1.00000       0.00000  
     265  hru0265                    hru         265     1.8224E-4       1.00000       0.00000  
     266  hru0266                    hru         266     4.5606E-5       1.00000       0.00000  
     267  hru0267                    hru         267     1.6644E-4       1.00000       0.00000  
     268  hru0268                    hru         268     1.6805E-4       1.00000       0.00000  
     269  hru0269                    hru         269     1.6988E-4       1.00000       0.00000  
     270  hru0270                    hru         270     7.7513E-3       1.00000       0.00000  
     271  hru0271                    hru         271     2.7493E-4       1.00000       0.00000  
     272  hru0272                    hru         272     4.9847E-4       1.00000       0.00000  
     273  hru0273                    hru         273     3.1054E-5       1.00000       0.00000  
     274  hru0274                    hru         274     1.5492E-4       1.00000       0.00000  
     275  hru0275                    hru         275     1.4137E-4       1.00000       0.00000  
     276  hru0276                    hru         276     5.5433E-5       1.00000       0.00000  
     277  hru0277                    hru         277     5.5564E-5       1.00000       0.00000  
     278  hru0278                    hru         278     7.3705E-5       1.00000       0.00000  
     279  hru0279                    hru         279     9.5719E-5       1.00000       0.00000  
     280  hru0280                    hru         280     1.5595E-4       1.00000       0.00000  
     281  hru0281                    hru         281     4.4519E-6       1.00000       0.00000  
     282  hru0282                    hru         282     1.7509E-4       1.00000       0.00000  
     283  hru0283                    hru         283     6.1478E-6       1.00000       0.00000  
     284  hru0284                    hru         284     9.2439E-5       1.00000       0.00000  
     285  hru0285                    hru         285     1.2475E-4       1.00000       0.00000  
     286  hru0286                    hru         286     4.2767E-5       1.00000       0.00000  
     287  hru0287                    hru         287     5.4097E-5       1.00000       0.00000  
     288  hru0288                    hru         288     8.9789E-5       1.00000       0.00000  
     289  hru0289                    hru         289     1.1445E-6       1.00000       0.00000  
     290  hru0290                    hru         290     2.3415E-4       1.00000       0.00000  
     291  hru0291                    hru         291     4.9838E-6       1.00000       0.00000  
     292  hru0292                    hru         292     4.5159E-6       1.00000       0.00000  
     293  hru0293                    hru         293     1.1361E-5       1.00000       0.00000  
     294  hru0294                    hru         294     4.1814E-6       1.00000       0.00000  
     295  hru0295                    hru         295     4.2930E-5       1.00000       0.00000  
     296  hru0296                    hru         296     1.7063E-5       1.00000       0.00000  
     297  hru0297                    hru         297     1.2635E-4       1.00000       0.00000  
     298  hru0298                    hru         298     6.1109E-5       1.00000       0.00000  
     299  hru0299                    hru         299     1.0350E-5       1.00000       0.00000  
     300  hru0300                    hru         300     3.6691E-4       1.00000       0.00000  
     301  hru0301                    hru         301     7.4333E-5       1.00000       0.00000  
     302  hru0302                    hru         302     2.3014E-4       1.00000       0.00000  
     303  hru0303                    hru         303     5.6942E-6       1.00000       0.00000  
     304  hru0304                    hru         304     2.8292E-5       1.00000       0.00000  
     305  hru0305                    hru         305     5.7954E-5       1.00000       0.00000  
     306  hru0306                    hru         306     1.2488E-4       1.00000       0.00000  
     307  hru0307                    hru         307     5.1381E-4       1.00000       0.00000  