object.cnt: written by SWAT+ editor v2.2.0 on 2024-06-05 07:19 for SWAT+ rev.60.5.4
name                   ls_area      tot_area       obj       hru      lhru       rtu       mfl       aqu       cha       res       rec      exco       dlr       can       pmp       out      lcha     aqu2d       hrd       wro  
Valicka_data       12444.03228   12444.03228     10445      5196         0      5196         0         1         0         5         0         0         0         0         0         0        47         0         0         0  
