plant.ini: written by SWAT+ editor v2.2.0 on 2024-06-05 07:19 for SWAT+ rev.60.5.4 and edited with SWATfarmR 2.0.5 on 2024-07-23 08:15:52
pcom_name          plt_cnt  rot_yr_ini          plt_name     lc_status      lai_init       bm_init      phu_init      plnt_pop      yrs_init      rsd_init  
field_101_com                4           1
                                                 canp140             y             1          1000             0             0             1          1000
                                                 corn120             n             0             0             0             0             0             0
                                                 wwht160             n             0             0             0             0             0             0
                                                 wbar120             n             0             0             0             0             0             0
field_102_com                4           1
                                                 wwht160             y             1          1000             0             0             1          1000
                                                 sunf100             n             0             0             0             0             0             0
                                                 canp140             n             0             0             0             0             0             0
                                                 corn120             n             0             0             0             0             0             0
field_106_com                2           1
                                                 canp140             y             1          1000             0             0             1          1000
                                                 wwht160             n             0             0             0             0             0             0
field_107_com                3           1
                                                 wwht160             y             1          1000             0             0             1          1000
                                                 canp140             n             0             0             0             0             0             0
                                                 corn120             n             0             0             0             0             0             0
field_109_com                6           1
                                                 wwht160             y             1          1000             0             0             1          1000
                                                 corn120             n             0             0             0             0             0             0
                                                 sunf100             n             0             0             0             0             0             0
                                                    alfa             n             0             0             0             0             0             0
                                                 wbar120             n             0             0             0             0             0             0
                                                    radi             n             0             0             0             0             0             0
field_10_com                 3           1
                                                 canp140             y             1          1000             0             0             1          1000
                                                 corn120             n             0             0             0             0             0             0
                                                 wwht160             n             0             0             0             0             0             0
field_112_com                2           1
                                                 wwht160             y             1          1000             0             0             1          1000
                                                 corn120             n             0             0             0             0             0             0
field_113_com                3           1
                                                 wwht160             y             1          1000             0             0             1          1000
                                                 canp140             n             0             0             0             0             0             0
                                                    alfa             n             0             0             0             0             0             0
field_114_com                2           1
                                                 wwht160             y             1          1000             0             0             1          1000
                                                 canp140             n             0             0             0             0             0             0
field_118_com                2           1
                                                 wwht160             y             1          1000             0             0             1          1000
                                                 corn120             n             0             0             0             0             0             0
field_119_com                3           1
                                                 wwht160             y             1          1000             0             0             1          1000
                                                 corn120             n             0             0             0             0             0             0
                                                    radi             n             0             0             0             0             0             0
field_11_com                 3           1
                                                 wbar120             y             1          1000             0             0             1          1000
                                                    alfa             n             0             0             0             0             0             0
                                                 corn120             n             0             0             0             0             0             0
field_120_com                3           1
                                                 wwht160             y             1          1000             0             0             1          1000
                                                    alfa             n             0             0             0             0             0             0
                                                 corn120             n             0             0             0             0             0             0
field_121_com                2           1
                                                 wwht160             y             1          1000             0             0             1          1000
                                                 canp140             n             0             0             0             0             0             0
field_123_com                4           1
                                                 canp140             y             1          1000             0             0             1          1000
                                                 wwht160             n             0             0             0             0             0             0
                                                 corn120             n             0             0             0             0             0             0
                                                    radi             n             0             0             0             0             0             0
field_124_com                4           1
                                                 wwht160             y             1          1000             0             0             1          1000
                                                 corn120             n             0             0             0             0             0             0
                                                 wbar120             n             0             0             0             0             0             0
                                                    alfa             n             0             0             0             0             0             0
field_126_com                5           1
                                                 wwht160             y             1          1000             0             0             1          1000
                                                 corn120             n             0             0             0             0             0             0
                                                 sunf100             n             0             0             0             0             0             0
                                                 canp140             n             0             0             0             0             0             0
                                                    radi             n             0             0             0             0             0             0
field_127_com                3           1
                                                 wwht160             y             1          1000             0             0             1          1000
                                                 canp140             n             0             0             0             0             0             0
                                                    alfa             n             0             0             0             0             0             0
field_128_com                3           1
                                                 wwht160             y             1          1000             0             0             1          1000
                                                 canp140             n             0             0             0             0             0             0
                                                 corn120             n             0             0             0             0             0             0
field_129_com                3           1
                                                 wwht160             y             1          1000             0             0             1          1000
                                                 canp140             n             0             0             0             0             0             0
                                                 corn120             n             0             0             0             0             0             0
field_12_com                 4           1
                                                 wwht160             y             1          1000             0             0             1          1000
                                                 corn120             n             0             0             0             0             0             0
                                                 canp140             n             0             0             0             0             0             0
                                                    radi             n             0             0             0             0             0             0
field_130_com                2           1
                                                 wwht160             y             1          1000             0             0             1          1000
                                                 canp140             n             0             0             0             0             0             0
field_131_com                3           1
                                                 wwht160             y             1          1000             0             0             1          1000
                                                 corn120             n             0             0             0             0             0             0
                                                 sunf100             n             0             0             0             0             0             0
field_132_com                3           1
                                                 wwht160             y             1          1000             0             0             1          1000
                                                 canp140             n             0             0             0             0             0             0
                                                 wbar120             n             0             0             0             0             0             0
field_135_com                4           1
                                                 wwht160             y             1          1000             0             0             1          1000
                                                 canp140             n             0             0             0             0             0             0
                                                 wbar120             n             0             0             0             0             0             0
                                                 sunf100             n             0             0             0             0             0             0
field_136_com                3           1
                                                 wwht160             y             1          1000             0             0             1          1000
                                                 corn120             n             0             0             0             0             0             0
                                                    radi             n             0             0             0             0             0             0
field_138_com                2           1
                                                 wwht160             y             1          1000             0             0             1          1000
                                                 canp140             n             0             0             0             0             0             0
field_139_com                2           1
                                                 canp140             y             1          1000             0             0             1          1000
                                                 wwht160             n             0             0             0             0             0             0
field_140_com                5           1
                                                 wwht160             y             1          1000             0             0             1          1000
                                                 corn120             n             0             0             0             0             0             0
                                                 corn130             n             0             0             0             0             0             0
                                                 sunf100             n             0             0             0             0             0             0
                                                    radi             n             0             0             0             0             0             0
field_145_com                3           1
                                                 canp140             y             1          1000             0             0             1          1000
                                                    alfa             n             0             0             0             0             0             0
                                                 wwht160             n             0             0             0             0             0             0
field_146_com                3           1
                                                 wwht160             y             1          1000             0             0             1          1000
                                                 canp140             n             0             0             0             0             0             0
                                                 sunf100             n             0             0             0             0             0             0
field_147_com                4           1
                                                 canp140             y             1          1000             0             0             1          1000
                                                 wwht160             n             0             0             0             0             0             0
                                                 sunf100             n             0             0             0             0             0             0
                                                    radi             n             0             0             0             0             0             0
field_149_com                3           1
                                                 canp140             y             1          1000             0             0             1          1000
                                                 wwht160             n             0             0             0             0             0             0
                                                 corn120             n             0             0             0             0             0             0
field_150_com                3           1
                                                 wwht160             y             1          1000             0             0             1          1000
                                                 corn120             n             0             0             0             0             0             0
                                                 wbar120             n             0             0             0             0             0             0
field_158_com                4           1
                                                 wwht160             y             1          1000             0             0             1          1000
                                                 corn120             n             0             0             0             0             0             0
                                                 canp140             n             0             0             0             0             0             0
                                                    radi             n             0             0             0             0             0             0
field_164_com                4           1
                                                 canp140             y             1          1000             0             0             1          1000
                                                 wwht160             n             0             0             0             0             0             0
                                                 sunf100             n             0             0             0             0             0             0
                                                    radi             n             0             0             0             0             0             0
field_165_com                2           1
                                                 wwht160             y             1          1000             0             0             1          1000
                                                 corn120             n             0             0             0             0             0             0
field_166_com                4           1
                                                 wwht160             y             1          1000             0             0             1          1000
                                                    alfa             n             0             0             0             0             0             0
                                                 canp140             n             0             0             0             0             0             0
                                                 corn120             n             0             0             0             0             0             0
field_167_com                3           1
                                                 wwht160             y             1          1000             0             0             1          1000
                                                 corn120             n             0             0             0             0             0             0
                                                 canp140             n             0             0             0             0             0             0
field_16_com                 2           1
                                                 wwht160             y             1          1000             0             0             1          1000
                                                 canp140             n             0             0             0             0             0             0
field_170_com                2           1
                                                 wwht160             y             1          1000             0             0             1          1000
                                                 corn120             n             0             0             0             0             0             0
field_175_com                4           1
                                                 wbar120             y             1          1000             0             0             1          1000
                                                 wwht160             n             0             0             0             0             0             0
                                                 corn120             n             0             0             0             0             0             0
                                                    radi             n             0             0             0             0             0             0
field_177_com                5           1
                                                 wwht160             y             1          1000             0             0             1          1000
                                                 canp140             n             0             0             0             0             0             0
                                                 sunf100             n             0             0             0             0             0             0
                                                 corn120             n             0             0             0             0             0             0
                                                    radi             n             0             0             0             0             0             0
field_17_com                 3           1
                                                 canp140             y             1          1000             0             0             1          1000
                                                 corn120             n             0             0             0             0             0             0
                                                 wwht160             n             0             0             0             0             0             0
field_180_com                2           1
                                                 wwht160             y             1          1000             0             0             1          1000
                                                 corn120             n             0             0             0             0             0             0
field_182_com                2           1
                                                 wwht160             y             1          1000             0             0             1          1000
                                                 canp140             n             0             0             0             0             0             0
field_184_com                3           1
                                                 canp140             y             1          1000             0             0             1          1000
                                                 wwht160             n             0             0             0             0             0             0
                                                 corn120             n             0             0             0             0             0             0
field_185_com                3           1
                                                 wwht160             y             1          1000             0             0             1          1000
                                                 corn120             n             0             0             0             0             0             0
                                                    radi             n             0             0             0             0             0             0
field_186_com                2           1
                                                 wwht160             y             1          1000             0             0             1          1000
                                                 corn120             n             0             0             0             0             0             0
field_187_com                3           1
                                                 wwht160             y             1          1000             0             0             1          1000
                                                 canp140             n             0             0             0             0             0             0
                                                 corn120             n             0             0             0             0             0             0
field_189_com                5           1
                                                 canp140             y             1          1000             0             0             1          1000
                                                 wwht160             n             0             0             0             0             0             0
                                                 corn120             n             0             0             0             0             0             0
                                                 wbar120             n             0             0             0             0             0             0
                                                    radi             n             0             0             0             0             0             0
field_18_com                 4           1
                                                 wwht160             y             1          1000             0             0             1          1000
                                                    alfa             n             0             0             0             0             0             0
                                                 corn120             n             0             0             0             0             0             0
                                                 wbar120             n             0             0             0             0             0             0
field_193_com                4           1
                                                 wbar120             y             1          1000             0             0             1          1000
                                                    alfa             n             0             0             0             0             0             0
                                                 corn120             n             0             0             0             0             0             0
                                                 wwht160             n             0             0             0             0             0             0
field_195_com                3           1
                                                 canp140             y             1          1000             0             0             1          1000
                                                 wwht160             n             0             0             0             0             0             0
                                                 corn120             n             0             0             0             0             0             0
field_198_com                3           1
                                                 wwht160             y             1          1000             0             0             1          1000
                                                 canp140             n             0             0             0             0             0             0
                                                 corn120             n             0             0             0             0             0             0
field_199_com                6           1
                                                 wwht160             y             1          1000             0             0             1          1000