rout_unit.con: written by SWAT+ editor v2.2.0 on 2024-06-05 07:19 for SWAT+ rev.60.5.4
      id  name                gis_id          area           lat           lon          elev       rtu               wst       cst      ovfl      rule   out_tot       obj_typ    obj_id       hyd_typ          frac  
       1  rtu0001                  0       0.08528      46.83382      16.90481     276.56485         1         s468n169e         0         0         0         2            ru      4470           tot       1.00000           aqu         1           rhg       1.00000  
       2  rtu0002                  0       0.65436      46.81735      16.89824     296.74861         2         s468n169e         0         0         0         2            ru      4139           tot       1.00000           aqu         1           rhg       1.00000  
       3  rtu0003                  0       8.93989      46.77006      16.85702     152.97163         3         s468n169e         0         0         0         3            ru      5014           tot       0.28633            ru      5016           tot       0.71367           aqu         1           rhg       1.00000  
       4  rtu0004                  0       0.90638      46.67628      16.88485     256.72242         4         s467n169e         0         0         0         2            ru      4008           tot       1.00000           aqu         1           rhg       1.00000  
       5  rtu0005                  0       5.33501      46.83501      16.86856     143.90907         5         s468n169e         0         0         0         3            ru      2121           tot       0.42056            ru      4442           tot       0.57944           aqu         1           rhg       1.00000  
       6  rtu0006                  0      22.33181      46.66891      16.87894     232.91913         6         s467n169e         0         0         0         2            ru       675           tot       1.00000           aqu         1           rhg       1.00000  
       7  rtu0007                  0       5.86630      46.75952      16.84787     174.17646         7         s468n168e         0         0         0         2            ru      4622           tot       1.00000           aqu         1           rhg       1.00000  
       8  rtu0008                  0       0.08334      46.77459      16.86983     168.97833         8         s468n169e         0         0         0         2            ru      2655           tot       1.00000           aqu         1           rhg       1.00000  
       9  rtu0009                  0       1.65808      46.78295      16.87962     226.88493         9         s468n169e         0         0         0         3            ru       895           tot       0.51799            ru      3211           tot       0.48201           aqu         1           rhg       1.00000  
      10  rtu0010                  0       4.45443      46.79309      16.86225     152.81017        10         s468n169e         0         0         0         3            ru      1991           tot       0.39392            ru      2688           tot       0.60608           aqu         1           rhg       1.00000  
      11  rtu0011                  0       1.04651      46.72815      16.85371     156.57781        11         s467n169e         0         0         0         2            ru      3989           tot       1.00000           aqu         1           rhg       1.00000  
      12  rtu0012                  0       1.63563      46.77826      16.85878     153.37136        12         s468n169e         0         0         0         2            ru      2808           tot       1.00000           aqu         1           rhg       1.00000  
      13  rtu0013                  0       2.21776      46.78015      16.86333     178.63935        13         s468n169e         0         0         0         2            ru      4591           tot       1.00000           aqu         1           rhg       1.00000  
      14  rtu0014                  0       0.54192      46.82883      16.90701     297.04185        14         s468n169e         0         0         0         2            ru      4470           tot       1.00000           aqu         1           rhg       1.00000  
      15  rtu0015                  0       1.03346      46.71545      16.84615     158.24809        15         s467n168e         0         0         0         2            ru      3098           tot       1.00000           aqu         1           rhg       1.00000  
      16  rtu0016                  0       0.26772      46.78598      16.83328     253.01307        16         s468n168e         0         0         0         2            ru      4335           tot       1.00000           aqu         1           rhg       1.00000  
      17  rtu0017                  0      14.71348      46.78343      16.88357     218.26236        17         s468n169e         0         0         0         2            ru      2579           tot       1.00000           aqu         1           rhg       1.00000  
      18  rtu0018                  0      44.70786      46.66651      16.81688     205.43420        18         s467n168e         0         0         0         2            ru      4047           tot       1.00000           aqu         1           rhg       1.00000  
      19  rtu0019                  0       0.86321      46.83709      16.87485     151.36884        19         s468n169e         0         0         0         2            ru      2121           tot       1.00000           aqu         1           rhg       1.00000  
      20  rtu0020                  0       4.22925      46.75830      16.83285     220.68636        20         s468n168e         0         0         0         3            ru       938           tot       0.53893            ru      3804           tot       0.46107           aqu         1           rhg       1.00000  
      21  rtu0021                  0       0.91692      46.72944      16.84988     155.74714        21         s467n168e         0         0         0         2            ru       273           tot       1.00000           aqu         1           rhg       1.00000  
      22  rtu0022                  0       1.87838      46.75576      16.86543     165.61937        22         s468n169e         0         0         0         1           aqu         1           rhg       1.00000  
      23  rtu0023                  0       0.61992      46.71672      16.84609     159.27374        23         s467n168e         0         0         0         3            ru        15           tot       0.29121            ru      3098           tot       0.70879           aqu         1           rhg       1.00000  
      24  rtu0024                  0       1.31912      46.69680      16.82202     200.18846        24         s467n168e         0         0         0         2            ru      4079           tot       1.00000           aqu         1           rhg       1.00000  
      25  rtu0025                  0       6.74771      46.76508      16.85343     152.02669        25         s468n169e         0         0         0         2            ru      5017           tot       1.00000           aqu         1           rhg       1.00000  
      26  rtu0026                  0       0.76341      46.69090      16.81830     189.49807        26         s467n168e         0         0         0         3            ru      1559           tot       0.34868            ru      4253           tot       0.65132           aqu         1           rhg       1.00000  
      27  rtu0027                  0      17.88034      46.79498      16.88279     228.61291        27         s468n169e         0         0         0         2            ru       892           tot       1.00000           aqu         1           rhg       1.00000  
      28  rtu0028                  0       3.08485      46.79506      16.85096     156.63099        28         s468n169e         0         0         0         2            ru      2848           tot       1.00000           aqu         1           rhg       1.00000  
      29  rtu0029                  0       0.11784      46.82647      16.86205     151.34436        29         s468n169e         0         0         0         2            ru      2116           tot       1.00000           aqu         1           rhg       1.00000  
      30  rtu0030                  0       0.32274      46.83439      16.85877     180.98470        30         s468n169e         0         0         0         2            ru      2084           tot       1.00000           aqu         1           rhg       1.00000  
      31  rtu0031                  0       0.48361      46.78581      16.84302     227.68811        31         s468n168e         0         0         0         2            ru      2824           tot       1.00000           aqu         1           rhg       1.00000  
      32  rtu0032                  0       0.95140      46.76648      16.86181     184.79822        32         s468n169e         0         0         0         2            ru       550           tot       1.00000           aqu         1           rhg       1.00000  
      33  rtu0033                  0      16.75161      46.76211      16.85570     153.48509        33         s468n169e         0         0         0         4            ru      3190           tot       0.34028            ru      4283           tot       0.36806            ru      5018           tot       0.29167           aqu         1           rhg       1.00000  
      34  rtu0034                  0       1.70841      46.80356      16.86823     191.68676        34         s468n169e         0         0         0         2            ru      3461           tot       1.00000           aqu         1           rhg       1.00000  
      35  rtu0035                  0      15.99959      46.79557      16.87650     207.56791        35         s468n169e         0         0         0         4            ru       616           tot       0.35567            ru      2038           tot       0.30299            ru      3448           tot       0.34134           aqu         1           rhg       1.00000  
      36  rtu0036                  0       0.96628      46.66507      16.84849     174.10575        36         s467n168e         0         0         0         3            ru      1143           tot       0.59601            ru      5139           tot       0.40399           aqu         1           rhg       1.00000  
      37  rtu0037                  0       8.36008      46.69262      16.84907     158.60141        37         s467n168e         0         0         0         3            ru        95           tot       0.39815            ru      3115           tot       0.60185           aqu         1           rhg       1.00000  
      38  rtu0038                  0       0.97448      46.82815      16.87838     172.16886        38         s468n169e         0         0         0         2            ru       580           tot       1.00000           aqu         1           rhg       1.00000  
      39  rtu0039                  0       2.92667      46.80780      16.86065     147.91438        39         s468n169e         0         0         0         2            ru       732           tot       1.00000           aqu         1           rhg       1.00000  
      40  rtu0040                  0       0.12487      46.78959      16.85222     155.82933        40         s468n169e         0         0         0         2            ru      2832           tot       1.00000           aqu         1           rhg       1.00000  
      41  rtu0041                  0      14.51141      46.79356      16.88559     212.30945        41         s468n169e         0         0         0         2            ru      3352           tot       1.00000           aqu         1           rhg       1.00000  
      42  rtu0042                  0       0.51732      46.72664      16.84618     162.87790        42         s467n168e         0         0         0         2            ru      2020           tot       1.00000           aqu         1           rhg       1.00000  
      43  rtu0043                  0       0.45334      46.76260      16.87174     234.26156        43         s468n169e         0         0         0         2            ru      2503           tot       1.00000           aqu         1           rhg       1.00000  
      44  rtu0044                  0       0.86720      46.72900      16.83554     206.58698        44         s467n168e         0         0         0         3            ru      2970           tot       0.48845            ru      3001           tot       0.51155           aqu         1           rhg       1.00000  
      45  rtu0045                  0       2.19735      46.80011      16.88050     226.14449        45         s468n169e         0         0         0         3            ru        35           tot       0.37847            ru      4505           tot       0.62153           aqu         1           rhg       1.00000  
      46  rtu0046                  0       1.69616      46.82384      16.88860     250.43229        46         s468n169e         0         0         0         2            ru        52           tot       1.00000           aqu         1           rhg       1.00000  
      47  rtu0047                  0       0.71775      46.74548      16.83176     178.59787        47         s467n168e         0         0         0         2            ru      5026           tot       1.00000           aqu         1           rhg       1.00000  
      48  rtu0048                  0       0.22143      46.80632      16.85116     158.36724        48         s468n169e         0         0         0         2            ru      3419           tot       1.00000           aqu         1           rhg       1.00000  
      49  rtu0049                  0       1.41704      46.83085      16.86937     144.01826        49         s468n169e         0         0         0         2            ru       523           tot       1.00000           aqu         1           rhg       1.00000  
      50  rtu0050                  0       0.08057      46.81485      16.85339     161.41412        50         s468n169e         0         0         0         3            ru      3684           tot       0.50000            ru      4415           tot       0.50000           aqu         1           rhg       1.00000  
      51  rtu0051                  0       1.95646      46.76125      16.85100     154.66711        51         s468n169e         0         0         0         2            ru      2472           tot       1.00000           aqu         1           rhg       1.00000  
      52  rtu0052                  0      61.01106      46.82554      16.89050     214.24402        52         s468n169e         0         0         0         2            ru      4471           tot       1.00000           aqu         1           rhg       1.00000  
      53  rtu0053                  0       0.18266      46.77461      16.84852     177.11261        53         s468n168e         0         0         0         2            ru       715           tot       1.00000           aqu         1           rhg       1.00000  
      54  rtu0054                  0       1.72252      46.81575      16.86186     147.00702        54         s468n169e         0         0         0         2            ru      3559           tot       1.00000           aqu         1           rhg       1.00000  
      55  rtu0055                  0       0.02905      46.76864      16.83084     259.61700        55         s468n168e         0         0         0         2            ru       817           tot       1.00000           aqu         1           rhg       1.00000  
      56  rtu0056                  0       0.64518      46.76814      16.87495     245.64956        56         s468n169e         0         0         0         2            ru       512           tot       1.00000           aqu         1           rhg       1.00000  
      57  rtu0057                  0       1.79691      46.76230      16.87532     235.15393        57         s468n169e         0         0         0         2            ru      2721           tot       1.00000           aqu         1           rhg       1.00000  
      58  rtu0058                  0       6.27819      46.72728      16.86102     203.61404        58         s467n169e         0         0         0         2            ru       181           tot       1.00000           aqu         1           rhg       1.00000  
      59  rtu0059                  0       0.14512      46.78921      16.83290     251.54153        59         s468n168e         0         0         0         2            ru      4010           tot       1.00000           aqu         1           rhg       1.00000  
      60  rtu0060                  0       0.79365      46.72569      16.84026     191.27116        60         s467n168e         0         0         0         3            ru      1640           tot       0.69139            ru      1643           tot       0.30861           aqu         1           rhg       1.00000  
      61  rtu0061                  0       4.94437      46.77180      16.84056     173.95103        61         s468n168e         0         0         0         2            ru      4559           tot       1.00000           aqu         1           rhg       1.00000  
      62  rtu0062                  0      11.67964      46.68243      16.84389     161.93869        62         s467n168e         0         0         0         2            ru      4132           tot       1.00000           aqu         1           rhg       1.00000  
      63  rtu0063                  0       0.35719      46.70683      16.82261     205.47634        63         s467n168e         0         0         0         2            ru      2755           tot       1.00000           aqu         1           rhg       1.00000  
      64  rtu0064                  0       1.73466      46.67853      16.85614     186.84502        64         s467n169e         0         0         0         2            ru      1887           tot       1.00000           aqu         1           rhg       1.00000  
      65  rtu0065                  0       0.92932      46.84552      16.88731     183.41919        65         s468n169e         0         0         0         2            ru        92           tot       1.00000           aqu         1           rhg       1.00000  
      66  rtu0066                  0       2.12601      46.76728      16.83337     265.17564        66         s468n168e         0         0         0         2            ru      4326           tot       1.00000           aqu         1           rhg       1.00000  
      67  rtu0067                  0       4.61227      46.73256      16.85373     155.57048        67         s467n169e         0         0         0         2            ru      3939           tot       1.00000           aqu         1           rhg       1.00000  
      68  rtu0068                  0       2.59197      46.79222      16.85156     156.15308        68         s468n169e         0         0         0         3            ru      2817           tot       0.41128            ru      2818           tot       0.58872           aqu         1           rhg       1.00000  
      69  rtu0069                  0      13.98547      46.82585      16.88561     245.98063        69         s468n169e         0         0         0         3            ru      3522           tot       0.55747            ru      3523           tot       0.44253           aqu         1           rhg       1.00000  
      70  rtu0070                  0       4.05095      46.80672      16.85616     166.03793        70         s468n169e         0         0         0         2            ru      3415           tot       1.00000           aqu         1           rhg       1.00000  
      71  rtu0071                  0       1.60847      46.76513      16.85707     153.98078        71         s468n169e         0         0         0         2            ru      2473           tot       1.00000           aqu         1           rhg       1.00000  
      72  rtu0072                  0       6.88081      46.78644      16.84826     172.95312        72         s468n168e         0         0         0         3            ru       464           tot       0.36840            ru       887           tot       0.63160           aqu         1           rhg       1.00000  
      73  rtu0073                  0       0.77584      46.79769      16.86275     150.28487        73         s468n169e         0         0         0         2            ru       241           tot       1.00000           aqu         1           rhg       1.00000  
      74  rtu0074                  0       0.69427      46.81601      16.85447     162.17392        74         s468n169e         0         0         0         2            ru      4415           tot       1.00000           aqu         1           rhg       1.00000  
      75  rtu0075                  0       0.06703      46.81521      16.85687     167.98134        75         s468n169e         0         0         0         2            ru      3674           tot       1.00000           aqu         1           rhg       1.00000  
      76  rtu0076                  0       0.58921      46.77508      16.85776     151.68658        76         s468n169e         0         0         0         3            ru       617           tot       0.65625            ru      5010           tot       0.34375           aqu         1           rhg       1.00000  
      77  rtu0077                  0       0.29347      46.77581      16.85762     151.84748        77         s468n169e         0         0         0         2            ru      5010           tot       1.00000           aqu         1           rhg       1.00000  
      78  rtu0078                  0       0.35316      46.80463      16.86943     208.90543        78         s468n169e         0         0         0         3            ru      3455           tot       0.59542            ru      5176           tot       0.40458           aqu         1           rhg       1.00000  
      79  rtu0079                  0       4.27548      46.79788      16.85438     153.91108        79         s468n169e         0         0         0         2            ru      3876           tot       1.00000           aqu         1           rhg       1.00000  
      80  rtu0080                  0       3.12856      46.78035      16.84385     201.55006        80         s468n168e         0         0         0         2            ru      2562           tot       1.00000           aqu         1           rhg       1.00000  
      81  rtu0081                  0       0.03356      46.73882      16.81824     205.49586        81         s467n168e         0         0         0         3            ru       819           tot       0.63636            ru      4671           tot       0.36364           aqu         1           rhg       1.00000  
      82  rtu0082                  0       4.15132      46.76350      16.84190     234.45733        82         s468n168e         0         0         0         2            ru      2316           tot       1.00000           aqu         1           rhg       1.00000  
      83  rtu0083                  0       6.44734      46.68775      16.84831     162.90963        83         s467n168e         0         0         0         3            ru       246           tot       0.37300            ru      2257           tot       0.62700           aqu         1           rhg       1.00000  
      84  rtu0084                  0       0.48930      46.77357      16.86005     168.09293        84         s468n169e         0         0         0         3            ru      2482           tot       0.36598            ru      2485           tot       0.63402           aqu         1           rhg       1.00000  
      85  rtu0085                  0      13.60949      46.76230      16.85968     173.64589        85         s468n169e         0         0         0         2            ru      4280           tot       1.00000           aqu         1           rhg       1.00000  
      86  rtu0086                  0       0.78261      46.73096      16.83553     212.16455        86         s467n168e         0         0         0         2            ru      4654           tot       1.00000           aqu         1           rhg       1.00000  
      87  rtu0087                  0       3.30152      46.70135      16.82026     200.56944        87         s467n168e         0         0         0         2            ru      2739           tot       1.00000           aqu         1           rhg       1.00000  
      88  rtu0088                  0       1.23917      46.75890      16.85084     155.23790        88         s468n169e         0         0         0         2            ru      4286           tot       1.00000           aqu         1           rhg       1.00000  
      89  rtu0089                  0       0.93892      46.77980      16.87514     190.20620        89         s468n169e         0         0         0         3            ru      2573           tot       0.39794            ru      4189           tot       0.60206           aqu         1           rhg       1.00000  
      90  rtu0090                  0       4.96839      46.79243      16.85630     152.16333        90         s468n169e         0         0         0         2            ru      2691           tot       1.00000           aqu         1           rhg       1.00000  
      91  rtu0091                  0       0.96742      46.80804      16.84546     180.36840        91         s468n168e         0         0         0         2            ru      3400           tot       1.00000           aqu         1           rhg       1.00000  
      92  rtu0092                  0       4.70537      46.84476      16.88989     173.70503        92         s468n169e         0         0         0         2            ru       225           tot       1.00000           aqu         1           rhg       1.00000  
      93  rtu0093                  0       5.10314      46.71148      16.87603     205.95718        93         s467n169e         0         0         0         2            ru      4051           tot       1.00000           aqu         1           rhg       1.00000  
      94  rtu0094                  0       0.93938      46.80996      16.84544     178.57074        94         s468n168e         0         0         0         2            ru       994           tot       1.00000           aqu         1           rhg       1.00000  
      95  rtu0095                  0       1.24754      46.69324      16.84687     159.24506        95         s467n168e         0         0         0         2            ru      4132           tot       1.00000           aqu         1           rhg       1.00000  
      96  rtu0096                  0       0.21033      46.83313      16.87760     173.94068        96         s468n169e         0         0         0         2            ru      2160           tot       1.00000           aqu         1           rhg       1.00000  
      97  rtu0097                  0       3.15020      46.69017      16.84823     159.62588        97         s467n168e         0         0         0         2            ru        37           tot       1.00000           aqu         1           rhg       1.00000  
      98  rtu0098                  0      16.89756      46.67096      16.84467     167.46538        98         s467n168e         0         0         0         3            ru      3942           tot       0.64045            ru      4301           tot       0.35955           aqu         1           rhg       1.00000  
      99  rtu0099                  0       0.26265      46.77803      16.86389     166.24053        99         s468n169e         0         0         0         2            ru      4195           tot       1.00000           aqu         1           rhg       1.00000  
     100  rtu0100                  0       0.73273      46.72495      16.84401     177.65432       100         s467n168e         0         0         0         2            ru      2270           tot       1.00000           aqu         1           rhg       1.00000  
     101  rtu0101                  0       0.10383      46.84196      16.90018     219.54008       101         s468n169e         0         0         0         2            ru      3644           tot       1.00000           aqu         1           rhg       1.00000  
     102  rtu0102                  0       0.11780      46.84094      16.90061     207.64289       102         s468n169e         0         0         0         2            ru      4155           tot       1.00000           aqu         1           rhg       1.00000  
     103  rtu0103                  0       0.80125      46.77817      16.88133     218.49447       103         s468n169e         0         0         0         4            ru       664           tot       0.22360            ru      2211           tot       0.31366            ru      3222           tot       0.46273           aqu         1           rhg       1.00000  
     104  rtu0104                  0       0.42108      46.78014      16.87203     172.47241       104         s468n169e         0         0         0         3            ru      3905           tot       0.29575            ru      4584           tot       0.70425           aqu         1           rhg       1.00000  
     105  rtu0105                  0       6.69333      46.82966      16.88132     204.75899       105         s468n169e         0         0         0         2            ru      4170           tot       1.00000           aqu         1           rhg       1.00000  