sweep.ops: written by SWAT+ editor v2.2.0 on 2024-06-05 07:19 for SWAT+ rev.60.5.4
name                   swp_eff     frac_curb  description
high_eff               0.80000       0.90000  
