time.sim: written by SWAT+ editor v2.2.0 on 2024-06-05 07:19 for SWAT+ rev.60.5.4 and edited with SWATfarmR 2.0.5 on 2024-07-23 08:16:13
day_start  yrc_start   day_end   yrc_end      step  
        0       1999         0      2020         0
