weather-sta.cli: written by SWAT+ editor v2.2.0 on 2024-06-05 07:19 for SWAT+ rev.60.5.4
name                           wgn                        pcp                        tmp                        slr                        hmd                        wnd           wnd_dir          atmo_dep  
s466n168e                Valicka63                sta_id1.pcp                sta_id1.tmp                sta_id1.slr                sta_id1.hmd                sta_id1.wnd              null       atmodep.cli  
s466n16901e              Valicka79                sta_id4.pcp                sta_id4.tmp                sta_id4.slr                sta_id4.hmd                sta_id4.wnd              null       atmodep.cli  
s467n168e                Valicka64                sta_id2.pcp                sta_id2.tmp                sta_id2.slr                sta_id2.hmd                sta_id2.wnd              null       atmodep.cli  
s467n169e                Valicka80                sta_id5.pcp                sta_id5.tmp                sta_id5.slr                sta_id5.hmd                sta_id5.wnd              null       atmodep.cli  
s468n168e                Valicka65                sta_id3.pcp                sta_id3.tmp                sta_id3.slr                sta_id3.hmd                sta_id3.wnd              null       atmodep.cli  
s468n169e                Valicka81                sta_id6.pcp                sta_id6.tmp                sta_id6.slr                sta_id6.hmd                sta_id6.wnd              null       atmodep.cli  
