weather-wgn.cli: written by SWAT+ editor v2.2.0 on 2024-06-05 07:19 for SWAT+ rev.60.5.4
Valicka63                      46.60000      16.80000     229.00000        23  
 tmp_max_ave   tmp_min_ave    tmp_max_sd    tmp_min_sd       pcp_ave        pcp_sd      pcp_skew       wet_dry       wet_wet      pcp_days       pcp_hhr       slr_ave       dew_ave       wnd_ave  
     3.10889      -3.38055       5.02618       4.26336       1.10696       3.49017       5.62677       0.27751       0.60339      12.82609      14.89658       3.41442       0.85796       1.83363  
     6.26798      -2.25335       5.57552       4.43939       1.75526       4.40425       3.37769       0.26098       0.61597      11.43478      10.98722       6.44943       0.79380       2.24975  
    11.31923       1.22964       5.46255       4.11223       1.41913       4.06336       4.46380       0.27924       0.59864      12.78261      12.78044      11.62160       0.71494       2.35218  
    17.27119       5.64381       4.67084       3.48292       1.54806       3.73129       3.48815       0.32143       0.57718      12.95652       9.87027      16.42162       0.69599       2.36517  
    21.16036       9.52407       4.34302       3.17788       2.50254       5.60348       3.42779       0.39773       0.60942      15.69565      16.40485      19.29035       0.74725       2.35995  
    25.06038      13.05165       4.24412       3.03513       2.84764       6.65204       3.56024       0.38757       0.62500      15.30435      21.60593      21.00298       0.73544       2.10480  
    26.80659      14.82307       3.96232       2.64665       2.88184       6.49913       3.30755       0.38527       0.62222      15.65217      18.99209      22.62358       0.73994       1.71661  
    26.58721      14.02562       4.12756       2.75610       2.34452       5.80447       3.16815       0.26164       0.54962      11.39130      15.48165      19.25955       0.76097       1.75863  
    20.98746      10.12767       4.27942       3.30560       2.92403       7.54007       3.54664       0.24181       0.66894      12.73913      22.46074      13.70435       0.80114       1.70072  
    15.96046       5.92048       4.64552       4.01331       2.07930       5.81773       4.16563       0.26807       0.59155      12.34783      18.92751       8.58585       0.85289       1.59169  
     9.25813       2.34004       5.14183       4.13239       1.92958       4.85785       3.51545       0.29114       0.60678      12.82609      13.43010       3.99640       0.88261       1.70798  
     3.71086      -2.23338       4.56855       4.18381       1.47753       3.95539       4.02244       0.29880       0.58054      12.95652      13.11096       2.49477       0.87966       1.73066  
Valicka64                      46.70000      16.80000     223.00000        23  
 tmp_max_ave   tmp_min_ave    tmp_max_sd    tmp_min_sd       pcp_ave        pcp_sd      pcp_skew       wet_dry       wet_wet      pcp_days       pcp_hhr       slr_ave       dew_ave       wnd_ave  
     3.32231      -3.13865       4.99970       4.21599       1.04177       3.39402       5.96888       0.27660       0.59310      12.60870      15.66401       3.67224       0.83967       1.86116  
     6.55278      -1.99120       5.58477       4.40308       1.71263       4.29793       3.35097       0.26098       0.61597      11.43478      10.70229       6.69104       0.75301       2.25432  
    11.61696       1.83555       5.46248       4.04124       1.32662       3.89994       4.68308       0.27064       0.57040      12.04348      13.07677      11.55732       0.69057       2.36224  
    17.60904       6.31877       4.68759       3.38055       1.48090       3.61869       3.42095       0.28502       0.57246      12.00000      10.03363      16.30192       0.66074       2.35803  
    21.55175      10.01840       4.35088       3.11117       2.37844       5.36616       3.33843       0.41143       0.60055      15.78261      14.56985      19.16073       0.71248       2.26073  
    25.46959      13.17432       4.24784       3.02316       2.67803       6.39396       3.67444       0.36975       0.60060      14.47826      20.70932      21.76743       0.70796       2.01903  
    27.27091      15.29691       3.99410       2.61367       2.68567       6.36313       3.88324       0.37363       0.61032      15.17391      19.71774      22.60527       0.70568       1.72923  
    26.98426      14.17313       4.14626       2.72098       2.34557       5.72512       3.10124       0.26637       0.56296      11.73913      13.78342      19.76855       0.72754       1.65811  
    21.38480      10.38151       4.28086       3.13810       2.69761       7.02900       3.44861       0.25061       0.63604      12.30435      19.23904      13.76393       0.76542       1.67130  
    16.24072       6.14520       4.63555       3.86686       1.94627       5.40453       4.16207       0.25676       0.57249      11.69565      17.08870       9.08697       0.82449       1.52708  
     9.56339       2.73129       5.13714       4.11394       1.90584       4.95181       3.89701       0.31081       0.63750      13.91304      17.04691       4.11053       0.85315       1.64022  
     3.96872      -1.95731       4.56933       4.16435       1.47620       3.94931       3.96097       0.32461       0.62236      14.39130      11.88003       2.69113       0.85816       1.76592  
Valicka65                      46.80000      16.80000     243.00000        23  
 tmp_max_ave   tmp_min_ave    tmp_max_sd    tmp_min_sd       pcp_ave        pcp_sd      pcp_skew       wet_dry       wet_wet      pcp_days       pcp_hhr       slr_ave       dew_ave       wnd_ave  
     3.62575      -2.82464       4.93320       4.15580       0.95245       3.01493       5.56370       0.27952       0.60738      12.95652      12.50310       3.91532       0.83092       1.91110  
     6.60291      -1.61108       5.55150       4.35483       1.60351       3.97747       3.34948       0.29640       0.62976      12.56522      10.01463       6.80830       0.75209       2.25278  
    11.64116       1.67515       5.43851       4.02144       1.24084       3.62606       4.82803       0.29454       0.57192      12.69565      12.85642      11.55687       0.69956       2.41381  
    17.67378       5.97786       4.69514       3.41403       1.38486       3.30169       3.34709       0.29975       0.56890      12.30435       9.14462      16.60612       0.66149       2.34978  
    21.63231       9.84575       4.35164       3.09984       2.22979       4.87843       3.46754       0.43636       0.62141      16.65217      15.61842      19.77056       0.69359       2.38645  
    25.57012      13.55442       4.24869       3.01853       2.67723       5.95826       3.44256       0.37500       0.62428      15.04348      18.66916      21.60375       0.69630       2.08797  
    27.43295      15.06108       4.01674       2.62899       2.59888       5.78539       3.73001       0.37609       0.65135      16.08696      18.97310      21.72735       0.69514       1.79790  
    27.09937      14.73966       4.16152       2.69926       2.42850       5.70799       3.00741       0.28741       0.58562      12.69565      13.08057      19.48742       0.71876       1.78335  
    21.52446      10.76799       4.27668       3.18469       2.66984       6.84630       3.40183       0.24806       0.67987      13.17391      17.78775      13.80797       0.77157       1.64800  
    16.29045       6.51565       4.62513       3.84120       1.88473       5.13725       4.54587       0.27206       0.63279      13.26087      20.68653       8.65711       0.81959       1.59318  
     9.55312       2.66041       5.09089       4.07098       1.80025       4.72127       4.35904       0.34195       0.64912      14.86957      18.88192       4.44777       0.85587       1.79873  
     4.24259      -1.61683       4.51647       4.14050       1.42822       3.76534       3.86446       0.33884       0.64571      15.21739      11.80025       2.92245       0.85511       1.81781  
Valicka79                      46.60000      16.90000     206.00000        23  
 tmp_max_ave   tmp_min_ave    tmp_max_sd    tmp_min_sd       pcp_ave        pcp_sd      pcp_skew       wet_dry       wet_wet      pcp_days       pcp_hhr       slr_ave       dew_ave       wnd_ave  
     3.55398      -2.39606       5.02231       4.27130       1.10431       3.42434       5.45905       0.29262       0.63750      13.91304      14.55465       3.52140       0.81442       2.71676  
     6.28726      -1.11420       5.60745       4.50319       1.69974       4.24061       3.36848       0.30117       0.66558      13.39130      10.26918       6.92156       0.74845       3.22933  
    11.39376       1.90626       5.48630       4.09252       1.34140       3.82967       4.45345       0.29612       0.59136      13.08696      11.46592      11.75384       0.68082       3.34095  
    17.46509       6.27426       4.68226       3.48654       1.50068       3.64511       3.48504       0.32361       0.61022      13.60870      10.31477      16.23980       0.64351       3.26482  
    21.43335      10.12539       4.36310       3.18561       2.27576       5.01123       3.33148       0.41867       0.63255      16.56522      14.80160      19.26423       0.68477       3.03016  
    25.32407      13.81778       4.25569       3.04747       2.72658       6.14388       3.35012       0.38226       0.65289      15.78261      19.26563      21.51792       0.69364       2.62668  
    27.12806      15.50850       3.97339       2.66423       2.70613       6.19427       3.62749       0.38395       0.63187      15.82609      20.64474      22.26205       0.68466       2.35269  
    26.91938      14.87526       4.14487       2.77257       2.30502       5.54857       3.02310       0.28537       0.59797      12.86957      14.25832      19.77318       0.70620       2.17571  
    21.30448      10.93104       4.28466       3.30350       2.80401       7.07535       3.42441       0.26344       0.68868      13.82609      20.69792      13.45943       0.75312       2.35675  
    16.24022       6.63889       4.65819       4.00205       2.07475       5.82462       4.21730       0.27182       0.64744      13.56522      18.57418       8.55216       0.79327       2.24748  
     9.51430       2.90255       5.16739       4.13000       1.94625       4.84922       3.60767       0.35952       0.66574      15.60870      14.77880       4.00652       0.82225       2.55618  
     4.14508      -1.21283       4.60824       4.24801       1.50140       3.98628       4.00012       0.34957       0.66209      15.82609      13.25913       2.53831       0.83213       2.56115  
Valicka80                      46.70000      16.90000     174.00000        23  
 tmp_max_ave   tmp_min_ave    tmp_max_sd    tmp_min_sd       pcp_ave        pcp_sd      pcp_skew       wet_dry       wet_wet      pcp_days       pcp_hhr       slr_ave       dew_ave       wnd_ave  
     3.66990      -2.44857       4.96950       4.16756       1.01630       3.20006       5.51914       0.28502       0.60201      13.00000      13.63525       3.89411       0.82014       2.78211  
     6.63055      -1.15043       5.56258       4.40211       1.69072       4.20816       3.33061       0.29121       0.62937      12.43478       9.97664       6.81372       0.75082       3.29112  
    11.74596       2.22930       5.46151       4.01501       1.24837       3.63938       4.71148       0.30072       0.56803      12.78261      11.68627      11.81968       0.67743       3.46982  
    17.75197       6.76422       4.68185       3.39847       1.41475       3.47845       3.45531       0.30380       0.59322      12.82609       8.91667      17.19797       0.64157       3.35258  
    21.72457      10.51445       4.35440       3.12105       2.16850       4.80479       3.36428       0.43202       0.62304      16.60870      13.84041      20.44497       0.66718       2.89985  
    25.63352      13.80277       4.24217       3.02625       2.65267       5.91289       3.30325       0.39003       0.61605      15.17391      17.53701      22.42408       0.69224       2.45785  
    27.48719      15.89746       3.98924       2.63599       2.62837       6.13060       3.73901       0.37607       0.63536      15.73913      20.07866      22.81166       0.68178       2.49205  
    27.18557      14.88973       4.13295       2.71715       2.33411       5.56413       2.94825       0.27896       0.59310      12.60870      12.19916      19.99471       0.70535       2.04492  
    21.58833      10.94546       4.26923       3.17547       2.64616       6.75559       3.41995       0.24311       0.66323      12.65217      18.99209      13.86008       0.76161       2.37602  
    16.39562       6.64913       4.62300       3.88375       1.95248       5.45655       4.39010       0.27962       0.59107      12.65217      18.79074       9.08405       0.79296       2.30073  
     9.73601       3.19748       5.10048       4.06794       1.87175       4.78645       3.89310       0.33523       0.64793      14.69565      16.26808       4.13067       0.82781       2.52032  
     4.31938      -1.27388       4.56187       4.16620       1.48079       3.95283       3.97792       0.33065       0.63636      14.82609      12.68926       2.89168       0.83608       2.65998  
Valicka81                      46.80000      16.90000     208.00000        23  
 tmp_max_ave   tmp_min_ave    tmp_max_sd    tmp_min_sd       pcp_ave        pcp_sd      pcp_skew       wet_dry       wet_wet      pcp_days       pcp_hhr       slr_ave       dew_ave       wnd_ave  
     3.29036      -2.91349       5.00860       4.14464       0.96442       3.02822       5.48488       0.27873       0.62171      13.21739      12.33593       3.79947       0.84246       2.61969  
     6.17866      -1.61358       5.57097       4.33508       1.60514       4.00278       3.38363       0.28889       0.64138      12.60870      10.12101       6.50973       0.79594       2.99841  
    11.21419       1.65877       5.46651       4.00247       1.26997       3.70940       4.82916       0.29126       0.59801      13.08696      12.64746      11.73869       0.70620       3.18544  
    17.17643       6.20862       4.71523       3.38999       1.40123       3.35320       3.29125       0.30348       0.57639      12.52174       8.83309      16.91388       0.67109       3.00217  
    21.11353       9.93216       4.38161       3.11326       2.26635       4.95674       3.44836       0.43252       0.63307      16.82609      15.38287      20.02829       0.71227       2.74716  
    25.04217      13.55442       4.25681       3.03653       2.70368       6.01796       3.47583       0.38000       0.60588      14.78261      19.15166      21.44792       0.71093       2.34827  
    26.93213      15.20165       4.03196       2.65094       2.62223       5.87463       3.87913       0.37574       0.66133      16.30435      21.18802      22.46829       0.70906       2.38592  
    26.55746      14.87568       4.19834       2.72062       2.36372       5.62488       3.01960       0.27594       0.59516      12.56522      13.64285      18.88261       0.73106       2.15884  
    21.02494      10.93004       4.28920       3.15065       2.63083       6.84044       3.46531       0.24242       0.67007      12.78261      18.03470      13.67205       0.77706       2.20787  
    15.85154       6.60233       4.62905       3.84099       1.93850       5.34474       4.52704       0.27586       0.63192      13.34783      19.95708       8.20371       0.82588       2.20073  
     9.14622       2.67143       5.08401       4.06384       1.74364       4.55634       4.09570       0.33521       0.64179      14.56522      16.21109       3.98963       0.86298       2.45398  
     3.93307      -1.72017       4.52393       4.13008       1.32137       3.52315       3.88670       0.32884       0.64035      14.86957      10.74408       2.79187       0.86355       2.41873  
